* Design:	MUX_1S_2B
* Created:	"Thu Dec 8 2022"
* Vendor:	"Mentor Graphics Corporation"
* Program:	"Calibre xACT 3D"
* Version:	"v2017.4_19.14"
* Corner Name: typical_27
* Nominal Temperature: 25C
* Circuit Temperature: 27C
* 
* Integrated TICER reduction is not enabled.
* SHORT DELAY THRESHOLD: 2e-15
* Fill Mode: NG
* PEX REDUCE CC ABSOLUTE : 1
* PEX REDUCE CC RELATIVE : 0.01
* Delta transform mode : 344834

* .include "MUX_1S_2B.pex.netlist.pex"

* Start of included file MUX_1S_2B.pex.netlist.pex

.subckt PM_MUX_1S_2B%B<1> VSS 18 14 30 7 1 11 9 8 2 12
c1 1 VSS 0.00531602f $X=-0.74 $Y=0.0455
c2 2 VSS 0.00492744f $X=-0.632 $Y=0.1805
c3 7 VSS 0.0370268f $X=-0.738 $Y=0.0455
c4 8 VSS 0.00237012f $X=-0.63 $Y=0.1805
c5 9 VSS 0.00127253f $X=-0.7535 $Y=0.066
c6 10 VSS 0.00260676f $X=-0.767 $Y=0.207
c7 11 VSS 0.00274622f $X=-0.767 $Y=0.087
c8 12 VSS 0.0105993f $X=-0.7445 $Y=0.207
r1 30 29 0.0308642 $w=8.1e-08 $l=2.5e-09 $layer=<ENCRYPTED_LAYER_49>
+ $thickness=1e-09 $X=-0.6146 $Y=0.1805 $X2=-0.6175 $Y2=0.1805
r2 8 29 0.154321 $w=8.1e-08 $l=1.25e-08 $layer=<ENCRYPTED_LAYER_49>
+ $thickness=1e-09 $X=-0.63 $Y=0.1805 $X2=-0.6175 $Y2=0.1805
r3 2 28 19.3796 $w=1.8e-08 $l=1.8e-08 $layer=<ENCRYPTED_LAYER_7> $X=-0.632
+ $Y=0.1805 $X2=-0.632 $Y2=0.207
r4 27 28 3.14806 $w=1.8e-08 $l=1.35e-08 $layer=M1 $thickness=3.6e-08 $X=-0.6455
+ $Y=0.207 $X2=-0.632 $Y2=0.207
r5 26 27 3.14806 $w=1.8e-08 $l=1.35e-08 $layer=M1 $thickness=3.6e-08 $X=-0.659
+ $Y=0.207 $X2=-0.6455 $Y2=0.207
r6 25 26 2.79828 $w=1.8e-08 $l=1.2e-08 $layer=M1 $thickness=3.6e-08 $X=-0.671
+ $Y=0.207 $X2=-0.659 $Y2=0.207
r7 24 25 4.19742 $w=1.8e-08 $l=1.8e-08 $layer=M1 $thickness=3.6e-08 $X=-0.689
+ $Y=0.207 $X2=-0.671 $Y2=0.207
r8 23 24 5.59655 $w=1.8e-08 $l=2.4e-08 $layer=M1 $thickness=3.6e-08 $X=-0.713
+ $Y=0.207 $X2=-0.689 $Y2=0.207
r9 22 23 3.14806 $w=1.8e-08 $l=1.35e-08 $layer=M1 $thickness=3.6e-08 $X=-0.7265
+ $Y=0.207 $X2=-0.713 $Y2=0.207
r10 12 22 4.19742 $w=1.8e-08 $l=1.8e-08 $layer=M1 $thickness=3.6e-08 $X=-0.7445
+ $Y=0.207 $X2=-0.7265 $Y2=0.207
r11 10 21 2.43171 $w=1.8e-08 $l=1.75e-08 $layer=M1 $thickness=3.6e-08 $X=-0.767
+ $Y=0.207 $X2=-0.767 $Y2=0.1895
r12 10 12 3.59766 $w=1.8e-08 $l=2.25e-08 $layer=M1 $thickness=3.6e-08 $X=-0.767
+ $Y=0.207 $X2=-0.7445 $Y2=0.207
r13 20 21 2.56509 $w=1.8e-08 $l=1.1e-08 $layer=M1 $thickness=3.6e-08 $X=-0.767
+ $Y=0.1785 $X2=-0.767 $Y2=0.1895
r14 19 20 2.68168 $w=1.8e-08 $l=1.15e-08 $layer=M1 $thickness=3.6e-08 $X=-0.767
+ $Y=0.167 $X2=-0.767 $Y2=0.1785
r15 18 19 5.71315 $w=1.8e-08 $l=2.45e-08 $layer=M1 $thickness=3.6e-08 $X=-0.766
+ $Y=0.137 $X2=-0.767 $Y2=0.167
r16 18 17 6.8791 $w=1.8e-08 $l=2.95e-08 $layer=M1 $thickness=3.6e-08 $X=-0.766
+ $Y=0.137 $X2=-0.767 $Y2=0.113
r17 11 16 3.71668 $w=1.8e-08 $l=2.1e-08 $layer=M1 $thickness=3.6e-08 $X=-0.767
+ $Y=0.087 $X2=-0.767 $Y2=0.066
r18 11 17 6.06293 $w=1.8e-08 $l=2.6e-08 $layer=M1 $thickness=3.6e-08 $X=-0.767
+ $Y=0.087 $X2=-0.767 $Y2=0.113
r19 9 15 3.14806 $w=1.8e-08 $l=1.35e-08 $layer=M1 $thickness=3.6e-08 $X=-0.7535
+ $Y=0.066 $X2=-0.74 $Y2=0.066
r20 9 16 1.96775 $w=1.8e-08 $l=1.35e-08 $layer=M1 $thickness=3.6e-08 $X=-0.7535
+ $Y=0.066 $X2=-0.767 $Y2=0.066
r21 1 15 19.3796 $w=1.8e-08 $l=1.8e-08 $layer=<ENCRYPTED_LAYER_7> $X=-0.74
+ $Y=0.0455 $X2=-0.74 $Y2=0.066
r22 14 13 0.0308642 $w=8.1e-08 $l=2.5e-09 $layer=<ENCRYPTED_LAYER_48>
+ $thickness=1e-09 $X=-0.7226 $Y=0.0455 $X2=-0.7255 $Y2=0.0455
r23 7 13 0.154321 $w=8.1e-08 $l=1.25e-08 $layer=<ENCRYPTED_LAYER_48>
+ $thickness=1e-09 $X=-0.738 $Y=0.0455 $X2=-0.7255 $Y2=0.0455
r24 2 8 1e-05 $l=2e-09 $X=-0.632 $Y=0.1805 $X2=-0.63 $Y2=0.1805
r25 1 7 1e-05 $l=2e-09 $X=-0.74 $Y=0.0455 $X2=-0.738 $Y2=0.0455
.ends

.subckt PM_MUX_1S_2B%B<0> VSS 18 14 30 8 1 7 2 12 9 11
c1 1 VSS 0.00492891f $X=0.016 $Y=0.1805
c2 2 VSS 0.00479055f $X=0.124 $Y=0.0455
c3 7 VSS 0.0374006f $X=0.1095 $Y=0.0455
c4 8 VSS 0.00235917f $X=0.0015 $Y=0.1805
c5 9 VSS 0.000629117f $X=0.124 $Y=0.066
c6 10 VSS 0.00260758f $X=0.151 $Y=0.207
c7 11 VSS 0.0106023f $X=0.1285 $Y=0.207
c8 12 VSS 0.00263166f $X=0.151 $Y=0.087
r1 8 1 0.154321 $w=8.1e-08 $l=1.25e-08 $layer=<ENCRYPTED_LAYER_49>
+ $thickness=1e-09 $X=0.0015 $Y=0.1805 $X2=0.016 $Y2=0.1805
r2 30 8 0.0308642 $w=8.1e-08 $l=2.5e-09 $layer=<ENCRYPTED_LAYER_49>
+ $thickness=1e-09 $X=-0.0013 $Y=0.1805 $X2=0.0015 $Y2=0.1805
r3 1 27 19.3796 $w=1.8e-08 $l=1.8e-08 $layer=<ENCRYPTED_LAYER_7> $X=0.016
+ $Y=0.1805 $X2=0.016 $Y2=0.207
r4 27 28 3.14806 $w=1.8e-08 $l=1.35e-08 $layer=M1 $thickness=3.6e-08 $X=0.016
+ $Y=0.207 $X2=0.0295 $Y2=0.207
r5 26 28 3.14806 $w=1.8e-08 $l=1.35e-08 $layer=M1 $thickness=3.6e-08 $X=0.043
+ $Y=0.207 $X2=0.0295 $Y2=0.207
r6 25 26 3.14806 $w=1.8e-08 $l=1.35e-08 $layer=M1 $thickness=3.6e-08 $X=0.0565
+ $Y=0.207 $X2=0.043 $Y2=0.207
r7 24 25 4.19742 $w=1.8e-08 $l=1.8e-08 $layer=M1 $thickness=3.6e-08 $X=0.0745
+ $Y=0.207 $X2=0.0565 $Y2=0.207
r8 23 24 5.24677 $w=1.8e-08 $l=2.25e-08 $layer=M1 $thickness=3.6e-08 $X=0.097
+ $Y=0.207 $X2=0.0745 $Y2=0.207
r9 22 23 3.14806 $w=1.8e-08 $l=1.35e-08 $layer=M1 $thickness=3.6e-08 $X=0.1105
+ $Y=0.207 $X2=0.097 $Y2=0.207
r10 11 22 4.19742 $w=1.8e-08 $l=1.8e-08 $layer=M1 $thickness=3.6e-08 $X=0.1285
+ $Y=0.207 $X2=0.1105 $Y2=0.207
r11 10 21 2.43171 $w=1.8e-08 $l=1.75e-08 $layer=M1 $thickness=3.6e-08 $X=0.151
+ $Y=0.207 $X2=0.151 $Y2=0.1895
r12 10 11 3.59766 $w=1.8e-08 $l=2.25e-08 $layer=M1 $thickness=3.6e-08 $X=0.151
+ $Y=0.207 $X2=0.1285 $Y2=0.207
r13 20 21 2.56509 $w=1.8e-08 $l=1.1e-08 $layer=M1 $thickness=3.6e-08 $X=0.151
+ $Y=0.1785 $X2=0.151 $Y2=0.1895
r14 19 20 2.68168 $w=1.8e-08 $l=1.15e-08 $layer=M1 $thickness=3.6e-08 $X=0.151
+ $Y=0.167 $X2=0.151 $Y2=0.1785
r15 18 19 5.71315 $w=1.8e-08 $l=2.45e-08 $layer=M1 $thickness=3.6e-08 $X=0.15
+ $Y=0.137 $X2=0.151 $Y2=0.167
r16 18 17 6.8791 $w=1.8e-08 $l=2.95e-08 $layer=M1 $thickness=3.6e-08 $X=0.15
+ $Y=0.137 $X2=0.151 $Y2=0.113
r17 12 16 3.71668 $w=1.8e-08 $l=2.1e-08 $layer=M1 $thickness=3.6e-08 $X=0.151
+ $Y=0.087 $X2=0.151 $Y2=0.066
r18 12 17 6.06293 $w=1.8e-08 $l=2.6e-08 $layer=M1 $thickness=3.6e-08 $X=0.151
+ $Y=0.087 $X2=0.151 $Y2=0.113
r19 15 16 1.96775 $w=1.8e-08 $l=1.35e-08 $layer=M1 $thickness=3.6e-08 $X=0.1375
+ $Y=0.066 $X2=0.151 $Y2=0.066
r20 9 15 3.14806 $w=1.8e-08 $l=1.35e-08 $layer=M1 $thickness=3.6e-08 $X=0.124
+ $Y=0.066 $X2=0.1375 $Y2=0.066
r21 2 9 19.3796 $w=1.8e-08 $l=1.8e-08 $layer=<ENCRYPTED_LAYER_7> $X=0.124
+ $Y=0.0455 $X2=0.124 $Y2=0.066
r22 7 2 0.154321 $w=8.1e-08 $l=1.25e-08 $layer=<ENCRYPTED_LAYER_48>
+ $thickness=1e-09 $X=0.1095 $Y=0.0455 $X2=0.124 $Y2=0.0455
r23 14 7 0.0308642 $w=8.1e-08 $l=2.5e-09 $layer=<ENCRYPTED_LAYER_48>
+ $thickness=1e-09 $X=0.1066 $Y=0.0455 $X2=0.1095 $Y2=0.0455
.ends

.subckt PM_MUX_1S_2B%XI2/NET1 VSS 34 63 69 72 13 15 17 18 6 20 26 23 5 2 14 16
+ 25 1 27 24 21 11 12 22 19
c1 1 VSS 0.000930874f $X=-0.713 $Y=0.113
c2 2 VSS 0.000916083f $X=-0.551 $Y=0.113
c3 5 VSS 0.00930489f $X=-0.416 $Y=0.0455
c4 6 VSS 0.00953664f $X=-0.416 $Y=0.1805
c5 11 VSS 0.0163662f $X=-0.713 $Y=0.113
c6 12 VSS 0.0174812f $X=-0.551 $Y=0.051
c7 13 VSS 0.0431432f $X=-0.414 $Y=0.0455
c8 14 VSS 0.0432037f $X=-0.414 $Y=0.1805
c9 15 VSS 0.000150217f $X=-0.713 $Y=0.1015
c10 16 VSS 0.000132747f $X=-0.551 $Y=0.1015
c11 17 VSS 0.00354765f $X=-0.4275 $Y=0.028
c12 18 VSS 0.00415606f $X=-0.4275 $Y=0.203
c13 19 VSS 0.00021779f $X=-0.713 $Y=0.074
c14 20 VSS 0.000264106f $X=-0.416 $Y=0.074
c15 21 VSS 0.000301376f $X=-0.416 $Y=0.113
c16 22 VSS 0.000827901f $X=-0.713 $Y=0.0935
c17 23 VSS 0.00337284f $X=-0.495 $Y=0.074
c18 24 VSS 0.00116876f $X=-0.562 $Y=0.113
c19 25 VSS 0.00362721f $X=-0.416 $Y=0.056
c20 26 VSS 0.000567183f $X=-0.416 $Y=0.0935
c21 27 VSS 0.00468451f $X=-0.416 $Y=0.14
r1 72 73 14.6259 $w=2e-08 $l=4.3e-08 $layer=<ENCRYPTED_LAYER_23>
+ $thickness=5.6e-08 $X=-0.713 $Y=0.0455 $X2=-0.713 $Y2=0.0885
r2 70 73 2.7211 $w=2e-08 $l=8e-09 $layer=<ENCRYPTED_LAYER_23>
+ $thickness=5.6e-08 $X=-0.713 $Y=0.0965 $X2=-0.713 $Y2=0.0885
r3 11 70 5.79936 $w=2e-08 $l=1.65e-08 $layer=<ENCRYPTED_LAYER_23>
+ $thickness=5.6e-08 $X=-0.713 $Y=0.113 $X2=-0.713 $Y2=0.0965
r4 1 66 19.3796 $w=1.8e-08 $l=1.8e-08 $layer=<ENCRYPTED_LAYER_4> $X=-0.713
+ $Y=0.113 $X2=-0.713 $Y2=0.113
r5 1 11 10.4265 $w=2.1e-08 $layer=LIG $thickness=5.2e-08 $X=-0.713 $Y=0.113
+ $X2=-0.713 $Y2=0.113
r6 69 68 0.0308642 $w=8.1e-08 $l=2.5e-09 $layer=<ENCRYPTED_LAYER_48>
+ $thickness=1e-09 $X=-0.3986 $Y=0.0455 $X2=-0.4015 $Y2=0.0455
r7 13 68 0.154321 $w=8.1e-08 $l=1.25e-08 $layer=<ENCRYPTED_LAYER_48>
+ $thickness=1e-09 $X=-0.414 $Y=0.0455 $X2=-0.4015 $Y2=0.0455
r8 15 66 2.68168 $w=1.8e-08 $l=1.15e-08 $layer=M1 $thickness=3.6e-08 $X=-0.713
+ $Y=0.1015 $X2=-0.713 $Y2=0.113
r9 5 60 19.3796 $w=1.8e-08 $l=1.8e-08 $layer=<ENCRYPTED_LAYER_7> $X=-0.416
+ $Y=0.0455 $X2=-0.416 $Y2=0.028
r10 64 66 19.5347 $w=1.8e-08 $l=1.8e-08 $layer=V1 $X=-0.713 $Y=0.113 $X2=-0.713
+ $Y2=0.113
r11 22 64 4.5472 $w=1.8e-08 $l=1.95e-08 $layer=M2 $thickness=3.6e-08 $X=-0.713
+ $Y=0.0935 $X2=-0.713 $Y2=0.113
r12 63 62 0.0308642 $w=8.1e-08 $l=2.5e-09 $layer=<ENCRYPTED_LAYER_49>
+ $thickness=1e-09 $X=-0.3986 $Y=0.1805 $X2=-0.4015 $Y2=0.1805
r13 14 62 0.154321 $w=8.1e-08 $l=1.25e-08 $layer=<ENCRYPTED_LAYER_49>
+ $thickness=1e-09 $X=-0.414 $Y=0.1805 $X2=-0.4015 $Y2=0.1805
r14 17 60 2.68168 $w=1.8e-08 $l=1.15e-08 $layer=M1 $thickness=3.6e-08
+ $X=-0.4275 $Y=0.028 $X2=-0.416 $Y2=0.028
r15 19 55 4.18063 $w=1.8e-08 $l=2.5e-08 $layer=M2 $thickness=3.6e-08 $X=-0.713
+ $Y=0.074 $X2=-0.688 $Y2=0.074
r16 19 22 2.89809 $w=1.8e-08 $l=1.95e-08 $layer=M2 $thickness=3.6e-08 $X=-0.713
+ $Y=0.074 $X2=-0.713 $Y2=0.0935
r17 6 49 19.3796 $w=1.8e-08 $l=1.8e-08 $layer=<ENCRYPTED_LAYER_7> $X=-0.416
+ $Y=0.1805 $X2=-0.416 $Y2=0.203
r18 59 60 19.5347 $w=1.8e-08 $l=1.8e-08 $layer=V1 $X=-0.416 $Y=0.024 $X2=-0.416
+ $Y2=0.028
r19 56 57 2.09871 $w=1.8e-08 $l=9e-09 $layer=M2 $thickness=3.6e-08 $X=-0.416
+ $Y=0.033 $X2=-0.416 $Y2=0.042
r20 56 59 2.09871 $w=1.8e-08 $l=9e-09 $layer=M2 $thickness=3.6e-08 $X=-0.416
+ $Y=0.033 $X2=-0.416 $Y2=0.024
r21 25 57 3.26466 $w=1.8e-08 $l=1.4e-08 $layer=M2 $thickness=3.6e-08 $X=-0.416
+ $Y=0.056 $X2=-0.416 $Y2=0.042
r22 54 55 7.69526 $w=1.8e-08 $l=3.3e-08 $layer=M2 $thickness=3.6e-08 $X=-0.655
+ $Y=0.074 $X2=-0.688 $Y2=0.074
r23 53 54 6.06293 $w=1.8e-08 $l=2.6e-08 $layer=M2 $thickness=3.6e-08 $X=-0.629
+ $Y=0.074 $X2=-0.655 $Y2=0.074
r24 52 53 6.7625 $w=1.8e-08 $l=2.9e-08 $layer=M2 $thickness=3.6e-08 $X=-0.6
+ $Y=0.074 $X2=-0.629 $Y2=0.074
r25 51 52 6.41272 $w=1.8e-08 $l=2.75e-08 $layer=M2 $thickness=3.6e-08
+ $X=-0.5725 $Y=0.074 $X2=-0.6 $Y2=0.074
r26 23 51 18.0722 $w=1.8e-08 $l=7.75e-08 $layer=M2 $thickness=3.6e-08 $X=-0.495
+ $Y=0.074 $X2=-0.5725 $Y2=0.074
r27 18 49 2.68168 $w=1.8e-08 $l=1.15e-08 $layer=M1 $thickness=3.6e-08
+ $X=-0.4275 $Y=0.203 $X2=-0.416 $Y2=0.203
r28 20 26 3.36689 $w=1.8e-08 $l=1.95e-08 $layer=M2 $thickness=3.6e-08 $X=-0.416
+ $Y=0.074 $X2=-0.416 $Y2=0.0935
r29 20 23 17.2417 $w=1.8e-08 $l=7.9e-08 $layer=M2 $thickness=3.6e-08 $X=-0.416
+ $Y=0.074 $X2=-0.495 $Y2=0.074
r30 20 25 3.01711 $w=1.8e-08 $l=1.8e-08 $layer=M2 $thickness=3.6e-08 $X=-0.416
+ $Y=0.074 $X2=-0.416 $Y2=0.056
r31 47 49 19.5347 $w=1.8e-08 $l=1.8e-08 $layer=V1 $X=-0.416 $Y=0.2055
+ $X2=-0.416 $Y2=0.203
r32 46 47 2.09871 $w=1.8e-08 $l=9e-09 $layer=M2 $thickness=3.6e-08 $X=-0.416
+ $Y=0.1965 $X2=-0.416 $Y2=0.2055
r33 45 46 2.09871 $w=1.8e-08 $l=9e-09 $layer=M2 $thickness=3.6e-08 $X=-0.416
+ $Y=0.1875 $X2=-0.416 $Y2=0.1965
r34 44 45 2.09871 $w=1.8e-08 $l=9e-09 $layer=M2 $thickness=3.6e-08 $X=-0.416
+ $Y=0.1785 $X2=-0.416 $Y2=0.1875
r35 43 44 2.68168 $w=1.8e-08 $l=1.15e-08 $layer=M2 $thickness=3.6e-08 $X=-0.416
+ $Y=0.167 $X2=-0.416 $Y2=0.1785
r36 27 43 6.29612 $w=1.8e-08 $l=2.7e-08 $layer=M2 $thickness=3.6e-08 $X=-0.416
+ $Y=0.14 $X2=-0.416 $Y2=0.167
r37 21 42 10.829 $w=1.8e-08 $l=5.15e-08 $layer=M2 $thickness=3.6e-08 $X=-0.416
+ $Y=0.113 $X2=-0.4675 $Y2=0.113
r38 21 26 3.36689 $w=1.8e-08 $l=1.95e-08 $layer=M2 $thickness=3.6e-08 $X=-0.416
+ $Y=0.113 $X2=-0.416 $Y2=0.0935
r39 21 27 5.11582 $w=1.8e-08 $l=2.7e-08 $layer=M2 $thickness=3.6e-08 $X=-0.416
+ $Y=0.113 $X2=-0.416 $Y2=0.14
r40 41 42 13.1752 $w=1.8e-08 $l=5.65e-08 $layer=M2 $thickness=3.6e-08 $X=-0.524
+ $Y=0.113 $X2=-0.4675 $Y2=0.113
r41 39 41 3.73104 $w=1.8e-08 $l=1.6e-08 $layer=M2 $thickness=3.6e-08 $X=-0.54
+ $Y=0.113 $X2=-0.524 $Y2=0.113
r42 38 39 2.56509 $w=1.8e-08 $l=1.1e-08 $layer=M2 $thickness=3.6e-08 $X=-0.551
+ $Y=0.113 $X2=-0.54 $Y2=0.113
r43 24 38 2.56509 $w=1.8e-08 $l=1.1e-08 $layer=M2 $thickness=3.6e-08 $X=-0.562
+ $Y=0.113 $X2=-0.551 $Y2=0.113
r44 36 38 19.5347 $w=1.8e-08 $l=1.8e-08 $layer=V1 $X=-0.551 $Y=0.113 $X2=-0.551
+ $Y2=0.113
r45 16 36 2.68168 $w=1.8e-08 $l=1.15e-08 $layer=M1 $thickness=3.6e-08 $X=-0.551
+ $Y=0.1015 $X2=-0.551 $Y2=0.113
r46 2 32 10.4265 $w=2.1e-08 $layer=LIG $thickness=5.2e-08 $X=-0.551 $Y=0.113
+ $X2=-0.551 $Y2=0.113
r47 2 36 19.3796 $w=1.8e-08 $l=1.8e-08 $layer=<ENCRYPTED_LAYER_4> $X=-0.551
+ $Y=0.113 $X2=-0.551 $Y2=0.113
r48 34 33 16.4967 $w=2e-08 $l=4.85e-08 $layer=<ENCRYPTED_LAYER_23>
+ $thickness=5.6e-08 $X=-0.551 $Y=0.1805 $X2=-0.551 $Y2=0.132
r49 32 33 6.6497 $w=2e-08 $l=1.9e-08 $layer=<ENCRYPTED_LAYER_23>
+ $thickness=5.6e-08 $X=-0.551 $Y=0.113 $X2=-0.551 $Y2=0.132
r50 12 32 21.2756 $w=2e-08 $l=6.2e-08 $layer=<ENCRYPTED_LAYER_23>
+ $thickness=5.6e-08 $X=-0.551 $Y=0.051 $X2=-0.551 $Y2=0.113
r51 5 13 1e-05 $l=2e-09 $X=-0.416 $Y=0.0455 $X2=-0.414 $Y2=0.0455
r52 6 14 1e-05 $l=2e-09 $X=-0.416 $Y=0.1805 $X2=-0.414 $Y2=0.1805
.ends

.subckt PM_MUX_1S_2B%XI1/NET1 VSS 32 64 70 73 13 18 15 16 6 19 23 25 5 1 14 17
+ 22 2 24 26 20 12 11 27 21
c1 1 VSS 0.000893435f $X=-0.065 $Y=0.113
c2 2 VSS 0.000915289f $X=0.097 $Y=0.113
c3 5 VSS 0.00929194f $X=-0.2 $Y=0.0455
c4 6 VSS 0.00953167f $X=-0.2 $Y=0.1805
c5 11 VSS 0.0174636f $X=-0.065 $Y=0.113
c6 12 VSS 0.0163448f $X=0.097 $Y=0.0025
c7 13 VSS 0.0429245f $X=-0.2145 $Y=0.0455
c8 14 VSS 0.0429859f $X=-0.2145 $Y=0.1805
c9 15 VSS 0.00354211f $X=-0.2115 $Y=0.028
c10 16 VSS 0.00412786f $X=-0.2115 $Y=0.203
c11 17 VSS 0.000132157f $X=-0.065 $Y=0.1015
c12 18 VSS 0.000149288f $X=0.097 $Y=0.1015
c13 19 VSS 0.000349099f $X=-0.2 $Y=0.074
c14 20 VSS 0.000296339f $X=-0.2 $Y=0.113
c15 21 VSS 0.000497291f $X=0.097 $Y=0.074
c16 22 VSS 0.00351075f $X=-0.2 $Y=0.056
c17 23 VSS 0.000532971f $X=-0.2 $Y=0.0935
c18 24 VSS 0.00454942f $X=-0.2 $Y=0.14
c19 25 VSS 0.00367742f $X=0.056 $Y=0.074
c20 26 VSS 0.00116006f $X=-0.1485 $Y=0.113
c21 27 VSS 0.000885643f $X=0.097 $Y=0.113
r1 73 72 16.4967 $w=2e-08 $l=4.85e-08 $layer=<ENCRYPTED_LAYER_23>
+ $thickness=5.6e-08 $X=-0.065 $Y=0.1805 $X2=-0.065 $Y2=0.132
r2 11 72 6.6497 $w=2e-08 $l=1.9e-08 $layer=<ENCRYPTED_LAYER_23>
+ $thickness=5.6e-08 $X=-0.065 $Y=0.113 $X2=-0.065 $Y2=0.132
r3 14 6 0.154321 $w=8.1e-08 $l=1.25e-08 $layer=<ENCRYPTED_LAYER_49>
+ $thickness=1e-09 $X=-0.2145 $Y=0.1805 $X2=-0.2 $Y2=0.1805
r4 70 14 0.0308642 $w=8.1e-08 $l=2.5e-09 $layer=<ENCRYPTED_LAYER_49>
+ $thickness=1e-09 $X=-0.2173 $Y=0.1805 $X2=-0.2145 $Y2=0.1805
r5 1 67 19.3796 $w=1.8e-08 $l=1.8e-08 $layer=<ENCRYPTED_LAYER_4> $X=-0.065
+ $Y=0.113 $X2=-0.065 $Y2=0.113
r6 1 11 10.4265 $w=2.1e-08 $layer=LIG $thickness=5.2e-08 $X=-0.065 $Y=0.113
+ $X2=-0.065 $Y2=0.113
r7 6 65 19.3796 $w=1.8e-08 $l=1.8e-08 $layer=<ENCRYPTED_LAYER_7> $X=-0.2
+ $Y=0.1805 $X2=-0.2 $Y2=0.203
r8 17 67 2.68168 $w=1.8e-08 $l=1.15e-08 $layer=M1 $thickness=3.6e-08 $X=-0.065
+ $Y=0.1015 $X2=-0.065 $Y2=0.113
r9 16 65 2.68168 $w=1.8e-08 $l=1.15e-08 $layer=M1 $thickness=3.6e-08 $X=-0.2115
+ $Y=0.203 $X2=-0.2 $Y2=0.203
r10 13 5 0.154321 $w=8.1e-08 $l=1.25e-08 $layer=<ENCRYPTED_LAYER_48>
+ $thickness=1e-09 $X=-0.2145 $Y=0.0455 $X2=-0.2 $Y2=0.0455
r11 64 13 0.0308642 $w=8.1e-08 $l=2.5e-09 $layer=<ENCRYPTED_LAYER_48>
+ $thickness=1e-09 $X=-0.2173 $Y=0.0455 $X2=-0.2145 $Y2=0.0455
r12 60 67 19.5347 $w=1.8e-08 $l=1.8e-08 $layer=V1 $X=-0.065 $Y=0.113 $X2=-0.065
+ $Y2=0.113
r13 59 60 2.56509 $w=1.8e-08 $l=1.1e-08 $layer=M2 $thickness=3.6e-08 $X=-0.076
+ $Y=0.113 $X2=-0.065 $Y2=0.113
r14 58 59 3.73104 $w=1.8e-08 $l=1.6e-08 $layer=M2 $thickness=3.6e-08 $X=-0.092
+ $Y=0.113 $X2=-0.076 $Y2=0.113
r15 26 58 13.1752 $w=1.8e-08 $l=5.65e-08 $layer=M2 $thickness=3.6e-08
+ $X=-0.1485 $Y=0.113 $X2=-0.092 $Y2=0.113
r16 56 65 19.5347 $w=1.8e-08 $l=1.8e-08 $layer=V1 $X=-0.2 $Y=0.2055 $X2=-0.2
+ $Y2=0.203
r17 55 56 2.09871 $w=1.8e-08 $l=9e-09 $layer=M2 $thickness=3.6e-08 $X=-0.2
+ $Y=0.1965 $X2=-0.2 $Y2=0.2055
r18 54 55 2.09871 $w=1.8e-08 $l=9e-09 $layer=M2 $thickness=3.6e-08 $X=-0.2
+ $Y=0.1875 $X2=-0.2 $Y2=0.1965
r19 53 54 2.09871 $w=1.8e-08 $l=9e-09 $layer=M2 $thickness=3.6e-08 $X=-0.2
+ $Y=0.1785 $X2=-0.2 $Y2=0.1875
r20 52 53 2.68168 $w=1.8e-08 $l=1.15e-08 $layer=M2 $thickness=3.6e-08 $X=-0.2
+ $Y=0.167 $X2=-0.2 $Y2=0.1785
r21 24 52 6.29612 $w=1.8e-08 $l=2.7e-08 $layer=M2 $thickness=3.6e-08 $X=-0.2
+ $Y=0.14 $X2=-0.2 $Y2=0.167
r22 5 50 19.3796 $w=1.8e-08 $l=1.8e-08 $layer=<ENCRYPTED_LAYER_7> $X=-0.2
+ $Y=0.0455 $X2=-0.2 $Y2=0.028
r23 20 23 3.36689 $w=1.8e-08 $l=1.95e-08 $layer=M2 $thickness=3.6e-08 $X=-0.2
+ $Y=0.113 $X2=-0.2 $Y2=0.0935
r24 20 24 5.11582 $w=1.8e-08 $l=2.7e-08 $layer=M2 $thickness=3.6e-08 $X=-0.2
+ $Y=0.113 $X2=-0.2 $Y2=0.14
r25 20 26 10.829 $w=1.8e-08 $l=5.15e-08 $layer=M2 $thickness=3.6e-08 $X=-0.2
+ $Y=0.113 $X2=-0.1485 $Y2=0.113
r26 15 50 2.68168 $w=1.8e-08 $l=1.15e-08 $layer=M1 $thickness=3.6e-08
+ $X=-0.2115 $Y=0.028 $X2=-0.2 $Y2=0.028
r27 49 50 19.5347 $w=1.8e-08 $l=1.8e-08 $layer=V1 $X=-0.2 $Y=0.024 $X2=-0.2
+ $Y2=0.028
r28 46 47 2.09871 $w=1.8e-08 $l=9e-09 $layer=M2 $thickness=3.6e-08 $X=-0.2
+ $Y=0.033 $X2=-0.2 $Y2=0.042
r29 46 49 2.09871 $w=1.8e-08 $l=9e-09 $layer=M2 $thickness=3.6e-08 $X=-0.2
+ $Y=0.033 $X2=-0.2 $Y2=0.024
r30 22 47 3.26466 $w=1.8e-08 $l=1.4e-08 $layer=M2 $thickness=3.6e-08 $X=-0.2
+ $Y=0.056 $X2=-0.2 $Y2=0.042
r31 19 45 17.2417 $w=1.8e-08 $l=7.9e-08 $layer=M2 $thickness=3.6e-08 $X=-0.2
+ $Y=0.074 $X2=-0.121 $Y2=0.074
r32 19 22 3.01711 $w=1.8e-08 $l=1.8e-08 $layer=M2 $thickness=3.6e-08 $X=-0.2
+ $Y=0.074 $X2=-0.2 $Y2=0.056
r33 19 23 3.36689 $w=1.8e-08 $l=1.95e-08 $layer=M2 $thickness=3.6e-08 $X=-0.2
+ $Y=0.074 $X2=-0.2 $Y2=0.0935
r34 44 45 18.3054 $w=1.8e-08 $l=7.85e-08 $layer=M2 $thickness=3.6e-08
+ $X=-0.0425 $Y=0.074 $X2=-0.121 $Y2=0.074
r35 43 44 6.64591 $w=1.8e-08 $l=2.85e-08 $layer=M2 $thickness=3.6e-08 $X=-0.014
+ $Y=0.074 $X2=-0.0425 $Y2=0.074
r36 42 43 6.7625 $w=1.8e-08 $l=2.9e-08 $layer=M2 $thickness=3.6e-08 $X=0.015
+ $Y=0.074 $X2=-0.014 $Y2=0.074
r37 25 42 9.56078 $w=1.8e-08 $l=4.1e-08 $layer=M2 $thickness=3.6e-08 $X=0.056
+ $Y=0.074 $X2=0.015 $Y2=0.074
r38 21 40 2.89809 $w=1.8e-08 $l=1.95e-08 $layer=M2 $thickness=3.6e-08 $X=0.097
+ $Y=0.074 $X2=0.097 $Y2=0.0935
r39 21 25 7.91167 $w=1.8e-08 $l=4.1e-08 $layer=M2 $thickness=3.6e-08 $X=0.097
+ $Y=0.074 $X2=0.056 $Y2=0.074
r40 27 38 19.5347 $w=1.8e-08 $l=1.8e-08 $layer=V1 $X=0.097 $Y=0.113 $X2=0.097
+ $Y2=0.113
r41 27 40 4.5472 $w=1.8e-08 $l=1.95e-08 $layer=M2 $thickness=3.6e-08 $X=0.097
+ $Y=0.113 $X2=0.097 $Y2=0.0935
r42 18 38 2.68168 $w=1.8e-08 $l=1.15e-08 $layer=M1 $thickness=3.6e-08 $X=0.097
+ $Y=0.1015 $X2=0.097 $Y2=0.113
r43 2 35 10.4265 $w=2.1e-08 $layer=LIG $thickness=5.2e-08 $X=0.097 $Y=0.113
+ $X2=0.097 $Y2=0.113
r44 2 38 19.3796 $w=1.8e-08 $l=1.8e-08 $layer=<ENCRYPTED_LAYER_4> $X=0.097
+ $Y=0.113 $X2=0.097 $Y2=0.113
r45 34 35 5.79936 $w=2e-08 $l=1.65e-08 $layer=<ENCRYPTED_LAYER_23>
+ $thickness=5.6e-08 $X=0.097 $Y=0.0965 $X2=0.097 $Y2=0.113
r46 33 34 2.7211 $w=2e-08 $l=8e-09 $layer=<ENCRYPTED_LAYER_23>
+ $thickness=5.6e-08 $X=0.097 $Y=0.0885 $X2=0.097 $Y2=0.0965
r47 32 33 14.6259 $w=2e-08 $l=4.3e-08 $layer=<ENCRYPTED_LAYER_23>
+ $thickness=5.6e-08 $X=0.097 $Y=0.0455 $X2=0.097 $Y2=0.0885
r48 32 12 14.6259 $w=2e-08 $l=4.3e-08 $layer=<ENCRYPTED_LAYER_23>
+ $thickness=5.6e-08 $X=0.097 $Y=0.0455 $X2=0.097 $Y2=0.0025
.ends

.subckt PM_MUX_1S_2B%A<0> VSS 30 22 39 7 1 2 10 13 8 12 14 15 9 16 11
c1 1 VSS 0.00604734f $X=-0.092 $Y=0.1805
c2 2 VSS 0.00488136f $X=0.016 $Y=0.0455
c3 7 VSS 0.00275238f $X=0.018 $Y=0.0455
c4 8 VSS 0.0388992f $X=-0.09 $Y=0.1805
c5 9 VSS 0.00288776f $X=-0.1035 $Y=0.19
c6 10 VSS 0.00430007f $X=-0.001 $Y=0.019
c7 11 VSS 0.00154945f $X=0.015 $Y=0.019
c8 12 VSS 0.00164494f $X=-0.1035 $Y=0.19
c9 13 VSS 0.000641553f $X=-0.014 $Y=0.038
c10 14 VSS 0.000737439f $X=-0.092 $Y=0.019
c11 15 VSS 0.00274572f $X=-0.092 $Y=0.0527
c12 16 VSS 0.00210135f $X=-0.0385 $Y=0.019
r1 39 38 0.0308642 $w=8.1e-08 $l=2.5e-09 $layer=<ENCRYPTED_LAYER_49>
+ $thickness=1e-09 $X=-0.0746 $Y=0.1805 $X2=-0.0775 $Y2=0.1805
r2 8 38 0.154321 $w=8.1e-08 $l=1.25e-08 $layer=<ENCRYPTED_LAYER_49>
+ $thickness=1e-09 $X=-0.09 $Y=0.1805 $X2=-0.0775 $Y2=0.1805
r3 1 36 19.3796 $w=1.8e-08 $l=1.8e-08 $layer=<ENCRYPTED_LAYER_7> $X=-0.092
+ $Y=0.1805 $X2=-0.092 $Y2=0.19
r4 9 36 2.68168 $w=1.8e-08 $l=1.15e-08 $layer=M1 $thickness=3.6e-08 $X=-0.1035
+ $Y=0.19 $X2=-0.092 $Y2=0.19
r5 34 36 19.5347 $w=1.8e-08 $l=1.8e-08 $layer=V1 $X=-0.092 $Y=0.19 $X2=-0.092
+ $Y2=0.19
r6 12 34 2.68168 $w=1.8e-08 $l=1.15e-08 $layer=M2 $thickness=3.6e-08 $X=-0.1035
+ $Y=0.19 $X2=-0.092 $Y2=0.19
r7 32 34 19.5347 $w=1.8e-08 $l=1.8e-08 $layer=V2 $X=-0.092 $Y=0.19 $X2=-0.092
+ $Y2=0.19
r8 31 32 14.0497 $w=1.8e-08 $l=6.03e-08 $layer=M3 $thickness=3.6e-08 $X=-0.092
+ $Y=0.1297 $X2=-0.092 $Y2=0.19
r9 30 31 12.0676 $w=1.8e-08 $l=5.17e-08 $layer=M3 $thickness=3.6e-08 $X=-0.093
+ $Y=0.078 $X2=-0.092 $Y2=0.1297
r10 30 15 5.88804 $w=1.8e-08 $l=2.53e-08 $layer=M3 $thickness=3.6e-08 $X=-0.093
+ $Y=0.078 $X2=-0.092 $Y2=0.0527
r11 14 16 10.8265 $w=1.8e-08 $l=5.35e-08 $layer=M3 $thickness=3.6e-08 $X=-0.092
+ $Y=0.019 $X2=-0.0385 $Y2=0.019
r12 14 15 6.22104 $w=1.8e-08 $l=3.37e-08 $layer=M3 $thickness=3.6e-08 $X=-0.092
+ $Y=0.019 $X2=-0.092 $Y2=0.0527
r13 13 27 5.5822 $w=1.8e-08 $l=2.9e-08 $layer=M2 $thickness=3.6e-08 $X=-0.014
+ $Y=0.038 $X2=0.015 $Y2=0.038
r14 16 28 12.4757 $w=1.8e-08 $l=5.35e-08 $layer=M3 $thickness=3.6e-08
+ $X=-0.0385 $Y=0.019 $X2=0.015 $Y2=0.019
r15 26 27 1.03499 $w=1.8e-08 $l=9.5e-09 $layer=M2 $thickness=3.6e-08 $X=0.015
+ $Y=0.0285 $X2=0.015 $Y2=0.038
r16 11 23 19.5347 $w=1.8e-08 $l=1.8e-08 $layer=V1 $X=0.015 $Y=0.019 $X2=0.015
+ $Y2=0.019
r17 11 26 2.2153 $w=1.8e-08 $l=9.5e-09 $layer=M2 $thickness=3.6e-08 $X=0.015
+ $Y=0.019 $X2=0.015 $Y2=0.0285
r18 11 28 19.5347 $w=1.8e-08 $l=1.8e-08 $layer=V2 $X=0.015 $Y=0.019 $X2=0.015
+ $Y2=0.019
r19 10 23 3.73104 $w=1.8e-08 $l=1.6e-08 $layer=M1 $thickness=3.6e-08 $X=-0.001
+ $Y=0.019 $X2=0.015 $Y2=0.019
r20 2 23 19.3796 $w=1.8e-08 $l=1.8e-08 $layer=<ENCRYPTED_LAYER_7> $X=0.016
+ $Y=0.0455 $X2=0.015 $Y2=0.019
r21 22 21 0.0308642 $w=8.1e-08 $l=2.5e-09 $layer=<ENCRYPTED_LAYER_48>
+ $thickness=1e-09 $X=0.0333 $Y=0.0455 $X2=0.0305 $Y2=0.0455
r22 7 21 0.154321 $w=8.1e-08 $l=1.25e-08 $layer=<ENCRYPTED_LAYER_48>
+ $thickness=1e-09 $X=0.018 $Y=0.0455 $X2=0.0305 $Y2=0.0455
r23 1 8 1e-05 $l=2e-09 $X=-0.092 $Y=0.1805 $X2=-0.09 $Y2=0.1805
r24 2 7 1e-05 $l=2e-09 $X=0.016 $Y=0.0455 $X2=0.018 $Y2=0.0455
.ends

.subckt PM_MUX_1S_2B%F<1> VSS 30 20 21 42 43 7 1 8 15 2 10 13 14 9
c1 1 VSS 0.00405254f $X=-0.686 $Y=0.0455
c2 2 VSS 0.00338233f $X=-0.578 $Y=0.1805
c3 7 VSS 0.00209888f $X=-0.7005 $Y=0.0455
c4 8 VSS 0.00210599f $X=-0.5925 $Y=0.1805
c5 9 VSS 0.00396408f $X=-0.7005 $Y=0.019
c6 10 VSS 0.000818004f $X=-0.5895 $Y=0.167
c7 11 VSS 0.000866495f $X=-0.784 $Y=0.019
c8 12 VSS 0.000544646f $X=-0.784 $Y=0.167
c9 13 VSS 0.00128431f $X=-0.784 $Y=0.0375
c10 14 VSS 0.00231275f $X=-0.7095 $Y=0.019
c11 15 VSS 0.00246755f $X=-0.7485 $Y=0.167
r1 43 41 0.0308642 $w=8.1e-08 $l=2.5e-09 $layer=<ENCRYPTED_LAYER_49>
+ $thickness=1e-09 $X=-0.5606 $Y=0.1805 $X2=-0.5635 $Y2=0.1805
r2 2 41 0.179012 $w=8.1e-08 $l=1.45e-08 $layer=<ENCRYPTED_LAYER_49>
+ $thickness=1e-09 $X=-0.578 $Y=0.1805 $X2=-0.5635 $Y2=0.1805
r3 8 2 0.179012 $w=8.1e-08 $l=1.45e-08 $layer=<ENCRYPTED_LAYER_49>
+ $thickness=1e-09 $X=-0.5925 $Y=0.1805 $X2=-0.578 $Y2=0.1805
r4 42 8 0.0308642 $w=8.1e-08 $l=2.5e-09 $layer=<ENCRYPTED_LAYER_49>
+ $thickness=1e-09 $X=-0.5953 $Y=0.1805 $X2=-0.5925 $Y2=0.1805
r5 2 38 19.3796 $w=1.8e-08 $l=1.8e-08 $layer=<ENCRYPTED_LAYER_7> $X=-0.578
+ $Y=0.1805 $X2=-0.578 $Y2=0.167
r6 10 38 2.68168 $w=1.8e-08 $l=1.15e-08 $layer=M1 $thickness=3.6e-08 $X=-0.5895
+ $Y=0.167 $X2=-0.578 $Y2=0.167
r7 35 38 19.5347 $w=1.8e-08 $l=1.8e-08 $layer=V1 $X=-0.578 $Y=0.167 $X2=-0.578
+ $Y2=0.167
r8 34 35 15.7403 $w=1.8e-08 $l=6.75e-08 $layer=M2 $thickness=3.6e-08 $X=-0.6455
+ $Y=0.167 $X2=-0.578 $Y2=0.167
r9 33 34 15.7403 $w=1.8e-08 $l=6.75e-08 $layer=M2 $thickness=3.6e-08 $X=-0.713
+ $Y=0.167 $X2=-0.6455 $Y2=0.167
r10 15 33 8.27824 $w=1.8e-08 $l=3.55e-08 $layer=M2 $thickness=3.6e-08
+ $X=-0.7485 $Y=0.167 $X2=-0.713 $Y2=0.167
r11 12 32 4.06404 $w=1.8e-08 $l=2.45e-08 $layer=M2 $thickness=3.6e-08 $X=-0.784
+ $Y=0.167 $X2=-0.784 $Y2=0.1425
r12 12 15 6.62912 $w=1.8e-08 $l=3.55e-08 $layer=M2 $thickness=3.6e-08 $X=-0.784
+ $Y=0.167 $X2=-0.7485 $Y2=0.167
r13 31 32 8.68632 $w=1.8e-08 $l=3.73e-08 $layer=M2 $thickness=3.6e-08 $X=-0.784
+ $Y=0.1052 $X2=-0.784 $Y2=0.1425
r14 30 31 5.18847 $w=1.8e-08 $l=2.22e-08 $layer=M2 $thickness=3.6e-08 $X=-0.784
+ $Y=0.083 $X2=-0.784 $Y2=0.1052
r15 30 29 2.15701 $w=1.8e-08 $l=9.3e-09 $layer=M2 $thickness=3.6e-08 $X=-0.784
+ $Y=0.083 $X2=-0.784 $Y2=0.0737
r16 28 29 4.13912 $w=1.8e-08 $l=1.77e-08 $layer=M2 $thickness=3.6e-08 $X=-0.784
+ $Y=0.056 $X2=-0.784 $Y2=0.0737
r17 13 28 4.31401 $w=1.8e-08 $l=1.85e-08 $layer=M2 $thickness=3.6e-08 $X=-0.784
+ $Y=0.0375 $X2=-0.784 $Y2=0.056
r18 11 27 6.62912 $w=1.8e-08 $l=3.55e-08 $layer=M2 $thickness=3.6e-08 $X=-0.784
+ $Y=0.019 $X2=-0.7485 $Y2=0.019
r19 11 13 2.6649 $w=1.8e-08 $l=1.85e-08 $layer=M2 $thickness=3.6e-08 $X=-0.784
+ $Y=0.019 $X2=-0.784 $Y2=0.0375
r20 14 25 5.01358 $w=1.8e-08 $l=2.15e-08 $layer=M2 $thickness=3.6e-08
+ $X=-0.7095 $Y=0.019 $X2=-0.688 $Y2=0.019
r21 14 27 9.0944 $w=1.8e-08 $l=3.9e-08 $layer=M2 $thickness=3.6e-08 $X=-0.7095
+ $Y=0.019 $X2=-0.7485 $Y2=0.019
r22 22 25 19.5347 $w=1.8e-08 $l=1.8e-08 $layer=V1 $X=-0.688 $Y=0.019 $X2=-0.688
+ $Y2=0.019
r23 9 22 2.91487 $w=1.8e-08 $l=1.25e-08 $layer=M1 $thickness=3.6e-08 $X=-0.7005
+ $Y=0.019 $X2=-0.688 $Y2=0.019
r24 1 22 19.3796 $w=1.8e-08 $l=1.8e-08 $layer=<ENCRYPTED_LAYER_7> $X=-0.686
+ $Y=0.0455 $X2=-0.688 $Y2=0.019
r25 21 19 0.0308642 $w=8.1e-08 $l=2.5e-09 $layer=<ENCRYPTED_LAYER_48>
+ $thickness=1e-09 $X=-0.6686 $Y=0.0455 $X2=-0.6715 $Y2=0.0455
r26 1 19 0.179012 $w=8.1e-08 $l=1.45e-08 $layer=<ENCRYPTED_LAYER_48>
+ $thickness=1e-09 $X=-0.686 $Y=0.0455 $X2=-0.6715 $Y2=0.0455
r27 7 1 0.179012 $w=8.1e-08 $l=1.45e-08 $layer=<ENCRYPTED_LAYER_48>
+ $thickness=1e-09 $X=-0.7005 $Y=0.0455 $X2=-0.686 $Y2=0.0455
r28 20 7 0.0308642 $w=8.1e-08 $l=2.5e-09 $layer=<ENCRYPTED_LAYER_48>
+ $thickness=1e-09 $X=-0.7033 $Y=0.0455 $X2=-0.7005 $Y2=0.0455
.ends

.subckt PM_MUX_1S_2B%S VSS 25 27 52 71 84 88 118 122 139 145 21 41 33 43 20 42
+ 24 38 23 34 2 19 15 36 39 3 40 22 37 1 35 13 14 29 49 31 28 44 26 48 5 16 32
+ 46 4 30 45 6 47 18 17
c1 1 VSS 0.00219329f $X=-0.659 $Y=0.113
c2 2 VSS 0.00221316f $X=-0.605 $Y=0.113
c3 3 VSS 0.00688122f $X=-0.389 $Y=0.113
c4 4 VSS 0.00688122f $X=-0.227 $Y=0.113
c5 5 VSS 0.00221421f $X=-0.011 $Y=0.113
c6 6 VSS 0.00219202f $X=0.043 $Y=0.113
c7 13 VSS 0.00637992f $X=-0.659 $Y=0.113
c8 14 VSS 0.00646162f $X=-0.605 $Y=0.051
c9 15 VSS 0.0867687f $X=-0.389 $Y=0.113
c10 16 VSS 0.0867687f $X=-0.227 $Y=0.113
c11 17 VSS 0.00646177f $X=-0.011 $Y=0.113
c12 18 VSS 0.00637469f $X=0.043 $Y=0.113
c13 19 VSS 0.00112315f $X=-0.659 $Y=0.0565
c14 20 VSS 0.00125029f $X=-0.61 $Y=0.065
c15 21 VSS 0.00205242f $X=-0.497 $Y=0.065
c16 22 VSS 0.00122365f $X=-0.497 $Y=0.113
c17 23 VSS 0.00725045f $X=-0.335 $Y=0.014
c18 24 VSS 0.00714006f $X=-0.335 $Y=0.212
c19 25 VSS 0.00124116f $X=-0.337 $Y=0.113
c20 26 VSS 0.0072924f $X=-0.281 $Y=0.014
c21 27 VSS 0.00124116f $X=-0.279 $Y=0.113
c22 28 VSS 0.00714006f $X=-0.281 $Y=0.212
c23 29 VSS 0.00205677f $X=-0.119 $Y=0.065
c24 30 VSS 0.00122216f $X=-0.119 $Y=0.113
c25 31 VSS 0.00127304f $X=-0.014 $Y=0.065
c26 32 VSS 0.00113314f $X=0.043 $Y=0.0565
c27 33 VSS 0.00109656f $X=-0.659 $Y=0.0745
c28 34 VSS 0.00114942f $X=-0.6185 $Y=0.065
c29 35 VSS 0.00111733f $X=-0.605 $Y=0.1015
c30 36 VSS 0.00326111f $X=-0.594 $Y=0.065
c31 37 VSS 0.00147618f $X=-0.497 $Y=0.0865
c32 38 VSS 0.00336632f $X=-0.459 $Y=0.113
c33 39 VSS 0.00415952f $X=-0.335 $Y=0.08
c34 40 VSS 0.004174f $X=-0.335 $Y=0.1245
c35 41 VSS 0.00176243f $X=-0.308 $Y=0.113
c36 42 VSS 0.00415952f $X=-0.281 $Y=0.08
c37 43 VSS 0.004174f $X=-0.281 $Y=0.1245
c38 44 VSS 0.00336632f $X=-0.2625 $Y=0.113
c39 45 VSS 0.00147594f $X=-0.119 $Y=0.1015
c40 46 VSS 0.00328369f $X=-0.108 $Y=0.065
c41 47 VSS 0.00111775f $X=-0.011 $Y=0.0865
c42 48 VSS 0.00115922f $X=0.0025 $Y=0.065
c43 49 VSS 0.00110533f $X=0.043 $Y=0.0745
r1 145 146 16.4967 $w=2e-08 $l=4.85e-08 $layer=<ENCRYPTED_LAYER_23>
+ $thickness=5.6e-08 $X=0.043 $Y=0.0455 $X2=0.043 $Y2=0.094
r2 18 146 6.6497 $w=2e-08 $l=1.9e-08 $layer=<ENCRYPTED_LAYER_23>
+ $thickness=5.6e-08 $X=0.043 $Y=0.113 $X2=0.043 $Y2=0.094
r3 6 143 19.3796 $w=1.8e-08 $l=1.8e-08 $layer=<ENCRYPTED_LAYER_4> $X=0.043
+ $Y=0.113 $X2=0.043 $Y2=0.113
r4 6 18 10.4265 $w=2.1e-08 $layer=LIG $thickness=5.2e-08 $X=0.043 $Y=0.113
+ $X2=0.043 $Y2=0.113
r5 142 143 2.68168 $w=1.8e-08 $l=1.15e-08 $layer=M1 $thickness=3.6e-08 $X=0.043
+ $Y=0.1015 $X2=0.043 $Y2=0.113
r6 141 142 3.38125 $w=1.8e-08 $l=1.45e-08 $layer=M1 $thickness=3.6e-08 $X=0.043
+ $Y=0.087 $X2=0.043 $Y2=0.1015
r7 49 136 0.983973 $w=1.8e-08 $l=9e-09 $layer=M1 $thickness=3.6e-08 $X=0.043
+ $Y=0.0745 $X2=0.043 $Y2=0.0655
r8 49 141 2.91487 $w=1.8e-08 $l=1.25e-08 $layer=M1 $thickness=3.6e-08 $X=0.043
+ $Y=0.0745 $X2=0.043 $Y2=0.087
r9 139 138 16.4967 $w=2e-08 $l=4.85e-08 $layer=<ENCRYPTED_LAYER_23>
+ $thickness=5.6e-08 $X=-0.011 $Y=0.1805 $X2=-0.011 $Y2=0.132
r10 17 138 6.6497 $w=2e-08 $l=1.9e-08 $layer=<ENCRYPTED_LAYER_23>
+ $thickness=5.6e-08 $X=-0.011 $Y=0.113 $X2=-0.011 $Y2=0.132
r11 32 135 0.633997 $w=1.8e-08 $l=1.43003e-08 $layer=M1 $thickness=3.6e-08
+ $X=0.043 $Y=0.0565 $X2=0.0315 $Y2=0.065
r12 32 136 0.9184 $w=1.8e-08 $l=9e-09 $layer=M1 $thickness=3.6e-08 $X=0.043
+ $Y=0.0565 $X2=0.043 $Y2=0.0655