* Design:	ADDER_M_2bit
* Created:	"Fri Dec 9 2022"
* Vendor:	"Mentor Graphics Corporation"
* Program:	"Calibre xACT 3D"
* Version:	"v2017.4_19.14"
* Corner Name: typical_27
* Nominal Temperature: 25C
* Circuit Temperature: 27C
* 
* Integrated TICER reduction is not enabled.
* SHORT DELAY THRESHOLD: 2e-15
* Fill Mode: NG
* PEX REDUCE CC ABSOLUTE : 1
* PEX REDUCE CC RELATIVE : 0.01
* Delta transform mode : 344834

* .include "ADDER_M_2bit.pex.netlist.pex"

* Start of included file ADDER_M_2bit.pex.netlist.pex

.subckt PM_ADDER_M_2bit%SUM<0> VSS 18 13 25 7 11 8
c1 1 VSS 0.00954149f $X=1.134 $Y=0.3595
c2 2 VSS 0.00961503f $X=1.134 $Y=0.4945
c3 7 VSS 0.0392746f $X=1.1195 $Y=0.3595
c4 8 VSS 0.0398213f $X=1.1195 $Y=0.4945
c5 9 VSS 0.00750313f $X=1.1225 $Y=0.328
c6 10 VSS 0.00709412f $X=1.161 $Y=0.526
c7 11 VSS 0.00661907f $X=1.161 $Y=0.3775
r1 8 2 0.154321 $w=8.1e-08 $l=1.25e-08 $layer=<ENCRYPTED_LAYER_49>
+ $thickness=1e-09 $X=1.1195 $Y=0.4945 $X2=1.134 $Y2=0.4945
r2 25 8 0.0308642 $w=8.1e-08 $l=2.5e-09 $layer=<ENCRYPTED_LAYER_49>
+ $thickness=1e-09 $X=1.1166 $Y=0.4945 $X2=1.1195 $Y2=0.4945
r3 2 22 19.3796 $w=1.8e-08 $l=1.8e-08 $layer=<ENCRYPTED_LAYER_7> $X=1.134
+ $Y=0.4945 $X2=1.134 $Y2=0.526
r4 22 23 3.03147 $w=1.8e-08 $l=1.3e-08 $layer=M1 $thickness=3.6e-08 $X=1.134
+ $Y=0.526 $X2=1.147 $Y2=0.526
r5 10 20 7.91516 $w=1.9604e-08 $l=4.95e-08 $layer=M1 $thickness=3.6e-08
+ $X=1.161 $Y=0.526 $X2=1.161 $Y2=0.4765
r6 10 23 1.9532 $w=1.8e-08 $l=1.4e-08 $layer=M1 $thickness=3.6e-08 $X=1.161
+ $Y=0.526 $X2=1.147 $Y2=0.526
r7 19 20 8.12896 $w=2e-08 $l=4.78e-08 $layer=M1 $thickness=3.6e-08 $X=1.161
+ $Y=0.4287 $X2=1.161 $Y2=0.4765
r8 18 19 1.31936 $w=2e-08 $l=7.7e-09 $layer=M1 $thickness=3.6e-08 $X=1.169
+ $Y=0.421 $X2=1.161 $Y2=0.4287
r9 18 17 0.29792 $w=2e-08 $l=1.8e-09 $layer=M1 $thickness=3.6e-08 $X=1.169
+ $Y=0.421 $X2=1.161 $Y2=0.4192
r10 11 16 7.91516 $w=1.9604e-08 $l=4.95e-08 $layer=M1 $thickness=3.6e-08
+ $X=1.161 $Y=0.3775 $X2=1.161 $Y2=0.328
r11 11 17 7.10752 $w=2e-08 $l=4.17e-08 $layer=M1 $thickness=3.6e-08 $X=1.161
+ $Y=0.3775 $X2=1.161 $Y2=0.4192
r12 15 16 1.9532 $w=1.8e-08 $l=1.4e-08 $layer=M1 $thickness=3.6e-08 $X=1.147
+ $Y=0.328 $X2=1.161 $Y2=0.328
r13 14 15 3.03147 $w=1.8e-08 $l=1.3e-08 $layer=M1 $thickness=3.6e-08 $X=1.134
+ $Y=0.328 $X2=1.147 $Y2=0.328
r14 9 14 2.68168 $w=1.8e-08 $l=1.15e-08 $layer=M1 $thickness=3.6e-08 $X=1.1225
+ $Y=0.328 $X2=1.134 $Y2=0.328
r15 1 14 19.3796 $w=1.8e-08 $l=1.8e-08 $layer=<ENCRYPTED_LAYER_7> $X=1.134
+ $Y=0.3595 $X2=1.134 $Y2=0.328
r16 7 1 0.154321 $w=8.1e-08 $l=1.25e-08 $layer=<ENCRYPTED_LAYER_48>
+ $thickness=1e-09 $X=1.1195 $Y=0.3595 $X2=1.134 $Y2=0.3595
r17 13 7 0.0308642 $w=8.1e-08 $l=2.5e-09 $layer=<ENCRYPTED_LAYER_48>
+ $thickness=1e-09 $X=1.1166 $Y=0.3595 $X2=1.1195 $Y2=0.3595
.ends

.subckt PM_ADDER_M_2bit%XI0/NET8 VSS 6 7 3 1
c1 1 VSS 0.00437837f $X=0.918 $Y=0.346
c2 3 VSS 0.00324663f $X=0.9035 $Y=0.346
r1 7 5 0.0462963 $w=5.4e-08 $l=2.5e-09 $layer=<ENCRYPTED_LAYER_48>
+ $thickness=1e-09 $X=0.9353 $Y=0.346 $X2=0.9325 $Y2=0.346
r2 1 5 0.268519 $w=5.4e-08 $l=1.45e-08 $layer=<ENCRYPTED_LAYER_48>
+ $thickness=1e-09 $X=0.918 $Y=0.346 $X2=0.9325 $Y2=0.346
r3 3 1 0.268519 $w=5.4e-08 $l=1.45e-08 $layer=<ENCRYPTED_LAYER_48>
+ $thickness=1e-09 $X=0.9035 $Y=0.346 $X2=0.918 $Y2=0.346
r4 6 3 0.0462963 $w=5.4e-08 $l=2.5e-09 $layer=<ENCRYPTED_LAYER_48>
+ $thickness=1e-09 $X=0.9006 $Y=0.346 $X2=0.9035 $Y2=0.346
.ends

.subckt PM_ADDER_M_2bit%XI0/NET9 VSS 6 7 3 1
c1 1 VSS 0.00292824f $X=0.864 $Y=0.346
c2 3 VSS 0.00241414f $X=0.8495 $Y=0.346
r1 7 5 0.0462963 $w=5.4e-08 $l=2.5e-09 $layer=<ENCRYPTED_LAYER_48>
+ $thickness=1e-09 $X=0.8813 $Y=0.346 $X2=0.8785 $Y2=0.346
r2 1 5 0.268519 $w=5.4e-08 $l=1.45e-08 $layer=<ENCRYPTED_LAYER_48>
+ $thickness=1e-09 $X=0.864 $Y=0.346 $X2=0.8785 $Y2=0.346
r3 3 1 0.268519 $w=5.4e-08 $l=1.45e-08 $layer=<ENCRYPTED_LAYER_48>
+ $thickness=1e-09 $X=0.8495 $Y=0.346 $X2=0.864 $Y2=0.346
r4 6 3 0.0462963 $w=5.4e-08 $l=2.5e-09 $layer=<ENCRYPTED_LAYER_48>
+ $thickness=1e-09 $X=0.8466 $Y=0.346 $X2=0.8495 $Y2=0.346
.ends

.subckt PM_ADDER_M_2bit%XI1/NET10 VSS 6 7 3 1
c1 1 VSS 0.00437522f $X=0.918 $Y=0.076
c2 3 VSS 0.00299835f $X=0.9035 $Y=0.076
r1 7 5 0.0462963 $w=5.4e-08 $l=2.5e-09 $layer=<ENCRYPTED_LAYER_49>
+ $thickness=1e-09 $X=0.9353 $Y=0.076 $X2=0.9325 $Y2=0.076
r2 1 5 0.268519 $w=5.4e-08 $l=1.45e-08 $layer=<ENCRYPTED_LAYER_49>
+ $thickness=1e-09 $X=0.918 $Y=0.076 $X2=0.9325 $Y2=0.076
r3 3 1 0.268519 $w=5.4e-08 $l=1.45e-08 $layer=<ENCRYPTED_LAYER_49>
+ $thickness=1e-09 $X=0.9035 $Y=0.076 $X2=0.918 $Y2=0.076
r4 6 3 0.0462963 $w=5.4e-08 $l=2.5e-09 $layer=<ENCRYPTED_LAYER_49>
+ $thickness=1e-09 $X=0.9006 $Y=0.076 $X2=0.9035 $Y2=0.076
.ends

.subckt PM_ADDER_M_2bit%A<1> VSS 22 10 16 3 9
c1 1 VSS 0.00500568f $X=0.081 $Y=0.1565
c2 3 VSS 0.0864485f $X=0.081 $Y=0.0465
c3 4 VSS 0.0100477f $X=0.016 $Y=0.062
c4 5 VSS 0.00145015f $X=0.016 $Y=0.157
c5 6 VSS 0.0103171f $X=0.016 $Y=0.252
c6 7 VSS 0.00671956f $X=0.016 $Y=0.1115
c7 8 VSS 0.00641176f $X=0.016 $Y=0.1892
c8 9 VSS 0.00315126f $X=0.0615 $Y=0.157
r1 6 23 2.73439 $w=2.26374e-08 $l=2.58e-08 $layer=M1 $thickness=3.6e-08
+ $X=0.016 $Y=0.252 $X2=0.016 $Y2=0.2262
r2 4 7 6.77759 $w=2.12903e-08 $l=4.95e-08 $layer=M1 $thickness=3.6e-08 $X=0.016
+ $Y=0.062 $X2=0.016 $Y2=0.1115
r3 22 23 2.25568 $w=2e-08 $l=1.32e-08 $layer=M1 $thickness=3.6e-08 $X=0.016
+ $Y=0.213 $X2=0.016 $Y2=0.2262
r4 22 8 4.0432 $w=2e-08 $l=2.38e-08 $layer=M1 $thickness=3.6e-08 $X=0.016
+ $Y=0.213 $X2=0.016 $Y2=0.1892
r5 5 21 3.88381 $w=1.8e-08 $l=2.25e-08 $layer=M1 $thickness=3.6e-08 $X=0.016
+ $Y=0.157 $X2=0.0385 $Y2=0.157
r6 5 7 6.9986 $w=2e-08 $l=4.55e-08 $layer=M1 $thickness=3.6e-08 $X=0.016
+ $Y=0.157 $X2=0.016 $Y2=0.1115
r7 5 8 4.74292 $w=2e-08 $l=3.22e-08 $layer=M1 $thickness=3.6e-08 $X=0.016
+ $Y=0.157 $X2=0.016 $Y2=0.1892
r8 9 20 4.5472 $w=1.8e-08 $l=1.95e-08 $layer=M1 $thickness=3.6e-08 $X=0.0615
+ $Y=0.157 $X2=0.081 $Y2=0.157
r9 9 21 5.36336 $w=1.8e-08 $l=2.3e-08 $layer=M1 $thickness=3.6e-08 $X=0.0615
+ $Y=0.157 $X2=0.0385 $Y2=0.157
r10 1 13 6.4735 $w=2.13953e-08 $layer=<ENCRYPTED_LAYER_23>
+ $thickness=5.22791e-08 $X=0.081 $Y=0.1565 $X2=0.081 $Y2=0.1565
r11 1 20 19.3796 $w=1.8e-08 $l=1.8e-08 $layer=<ENCRYPTED_LAYER_4> $X=0.081
+ $Y=0.1565 $X2=0.081 $Y2=0.157
r12 16 15 14.6259 $w=2e-08 $l=4.3e-08 $layer=<ENCRYPTED_LAYER_23>
+ $thickness=5.6e-08 $X=0.081 $Y=0.2245 $X2=0.081 $Y2=0.1815
r13 14 15 2.7211 $w=2e-08 $l=8e-09 $layer=<ENCRYPTED_LAYER_23>
+ $thickness=5.6e-08 $X=0.081 $Y=0.1735 $X2=0.081 $Y2=0.1815
r14 13 14 5.97793 $w=2e-08 $l=1.7e-08 $layer=<ENCRYPTED_LAYER_23>
+ $thickness=5.6e-08 $X=0.081 $Y=0.1565 $X2=0.081 $Y2=0.1735
r15 12 13 5.80786 $w=2e-08 $l=1.65e-08 $layer=<ENCRYPTED_LAYER_23>
+ $thickness=5.6e-08 $X=0.081 $Y=0.14 $X2=0.081 $Y2=0.1565
r16 11 12 2.55104 $w=2e-08 $l=7.5e-09 $layer=<ENCRYPTED_LAYER_23>
+ $thickness=5.6e-08 $X=0.081 $Y=0.1325 $X2=0.081 $Y2=0.14
r17 10 11 14.6259 $w=2e-08 $l=4.3e-08 $layer=<ENCRYPTED_LAYER_23>
+ $thickness=5.6e-08 $X=0.081 $Y=0.0895 $X2=0.081 $Y2=0.1325
r18 10 3 14.6259 $w=2e-08 $l=4.3e-08 $layer=<ENCRYPTED_LAYER_23>
+ $thickness=5.6e-08 $X=0.081 $Y=0.0895 $X2=0.081 $Y2=0.0465
.ends

.subckt PM_ADDER_M_2bit%XI1/NET5 VSS 6 7 3 1
c1 1 VSS 0.00435399f $X=0.54 $Y=0.238
c2 3 VSS 0.00323735f $X=0.5255 $Y=0.238
r1 7 5 0.0462963 $w=5.4e-08 $l=2.5e-09 $layer=<ENCRYPTED_LAYER_48>
+ $thickness=1e-09 $X=0.5573 $Y=0.238 $X2=0.5545 $Y2=0.238
r2 1 5 0.268519 $w=5.4e-08 $l=1.45e-08 $layer=<ENCRYPTED_LAYER_48>
+ $thickness=1e-09 $X=0.54 $Y=0.238 $X2=0.5545 $Y2=0.238
r3 3 1 0.268519 $w=5.4e-08 $l=1.45e-08 $layer=<ENCRYPTED_LAYER_48>
+ $thickness=1e-09 $X=0.5255 $Y=0.238 $X2=0.54 $Y2=0.238
r4 6 3 0.0462963 $w=5.4e-08 $l=2.5e-09 $layer=<ENCRYPTED_LAYER_48>
+ $thickness=1e-09 $X=0.5226 $Y=0.238 $X2=0.5255 $Y2=0.238
.ends

.subckt PM_ADDER_M_2bit%XI1/NET8 VSS 6 7 3 1
c1 1 VSS 0.00435765f $X=0.918 $Y=0.238
c2 3 VSS 0.00324408f $X=0.9035 $Y=0.238
r1 7 5 0.0462963 $w=5.4e-08 $l=2.5e-09 $layer=<ENCRYPTED_LAYER_48>
+ $thickness=1e-09 $X=0.9353 $Y=0.238 $X2=0.9325 $Y2=0.238
r2 1 5 0.268519 $w=5.4e-08 $l=1.45e-08 $layer=<ENCRYPTED_LAYER_48>
+ $thickness=1e-09 $X=0.918 $Y=0.238 $X2=0.9325 $Y2=0.238
r3 3 1 0.268519 $w=5.4e-08 $l=1.45e-08 $layer=<ENCRYPTED_LAYER_48>
+ $thickness=1e-09 $X=0.9035 $Y=0.238 $X2=0.918 $Y2=0.238
r4 6 3 0.0462963 $w=5.4e-08 $l=2.5e-09 $layer=<ENCRYPTED_LAYER_48>
+ $thickness=1e-09 $X=0.9006 $Y=0.238 $X2=0.9035 $Y2=0.238
.ends

.subckt PM_ADDER_M_2bit%B<1> VSS 22 10 16 3 1 9
c1 1 VSS 0.00502161f $X=0.081 $Y=0.4275
c2 3 VSS 0.0864751f $X=0.081 $Y=0.3165
c3 4 VSS 0.00987916f $X=0.016 $Y=0.332
c4 5 VSS 0.00145071f $X=0.016 $Y=0.427
c5 6 VSS 0.00998687f $X=0.016 $Y=0.522
c6 7 VSS 0.00632093f $X=0.016 $Y=0.3577
c7 8 VSS 0.00671556f $X=0.016 $Y=0.4725
c8 9 VSS 0.00279533f $X=0.0615 $Y=0.427
r1 6 8 6.77759 $w=2.12903e-08 $l=4.95e-08 $layer=M1 $thickness=3.6e-08 $X=0.016
+ $Y=0.522 $X2=0.016 $Y2=0.4725
r2 4 7 2.73439 $w=2.26374e-08 $l=2.57e-08 $layer=M1 $thickness=3.6e-08 $X=0.016
+ $Y=0.332 $X2=0.016 $Y2=0.3577
r3 22 23 4.0432 $w=2e-08 $l=2.37e-08 $layer=M1 $thickness=3.6e-08 $X=0.016
+ $Y=0.371 $X2=0.016 $Y2=0.3947
r4 22 7 2.25568 $w=2e-08 $l=1.33e-08 $layer=M1 $thickness=3.6e-08 $X=0.016
+ $Y=0.371 $X2=0.016 $Y2=0.3577
r5 5 21 3.88381 $w=1.8e-08 $l=2.25e-08 $layer=M1 $thickness=3.6e-08 $X=0.016
+ $Y=0.427 $X2=0.0385 $Y2=0.427
r6 5 23 4.74292 $w=2e-08 $l=3.23e-08 $layer=M1 $thickness=3.6e-08 $X=0.016
+ $Y=0.427 $X2=0.016 $Y2=0.3947
r7 5 8 6.9986 $w=2e-08 $l=4.55e-08 $layer=M1 $thickness=3.6e-08 $X=0.016
+ $Y=0.427 $X2=0.016 $Y2=0.4725
r8 9 20 4.5472 $w=1.8e-08 $l=1.95e-08 $layer=M1 $thickness=3.6e-08 $X=0.0615
+ $Y=0.427 $X2=0.081 $Y2=0.427
r9 9 21 5.36336 $w=1.8e-08 $l=2.3e-08 $layer=M1 $thickness=3.6e-08 $X=0.0615
+ $Y=0.427 $X2=0.0385 $Y2=0.427
r10 1 13 6.4735 $w=2.13953e-08 $layer=<ENCRYPTED_LAYER_23>
+ $thickness=5.22791e-08 $X=0.081 $Y=0.4275 $X2=0.081 $Y2=0.4275
r11 1 20 19.3796 $w=1.8e-08 $l=1.8e-08 $layer=<ENCRYPTED_LAYER_4> $X=0.081
+ $Y=0.4275 $X2=0.081 $Y2=0.427
r12 16 15 14.6259 $w=2e-08 $l=4.3e-08 $layer=<ENCRYPTED_LAYER_23>
+ $thickness=5.6e-08 $X=0.081 $Y=0.4945 $X2=0.081 $Y2=0.4515
r13 14 15 2.55104 $w=2e-08 $l=7.5e-09 $layer=<ENCRYPTED_LAYER_23>
+ $thickness=5.6e-08 $X=0.081 $Y=0.444 $X2=0.081 $Y2=0.4515
r14 13 14 5.80786 $w=2e-08 $l=1.65e-08 $layer=<ENCRYPTED_LAYER_23>
+ $thickness=5.6e-08 $X=0.081 $Y=0.4275 $X2=0.081 $Y2=0.444
r15 12 13 5.97793 $w=2e-08 $l=1.7e-08 $layer=<ENCRYPTED_LAYER_23>
+ $thickness=5.6e-08 $X=0.081 $Y=0.4105 $X2=0.081 $Y2=0.4275
r16 11 12 2.7211 $w=2e-08 $l=8e-09 $layer=<ENCRYPTED_LAYER_23>
+ $thickness=5.6e-08 $X=0.081 $Y=0.4025 $X2=0.081 $Y2=0.4105
r17 10 11 14.6259 $w=2e-08 $l=4.3e-08 $layer=<ENCRYPTED_LAYER_23>
+ $thickness=5.6e-08 $X=0.081 $Y=0.3595 $X2=0.081 $Y2=0.4025
r18 10 3 14.6259 $w=2e-08 $l=4.3e-08 $layer=<ENCRYPTED_LAYER_23>
+ $thickness=5.6e-08 $X=0.081 $Y=0.3595 $X2=0.081 $Y2=0.3165
.ends

.subckt PM_ADDER_M_2bit%XI1/NET2 VSS 6 7 3 1
c1 1 VSS 0.00431445f $X=0.54 $Y=0.076
c2 3 VSS 0.00294169f $X=0.5255 $Y=0.076
r1 6 5 0.0462963 $w=5.4e-08 $l=2.5e-09 $layer=<ENCRYPTED_LAYER_49>
+ $thickness=1e-09 $X=0.5573 $Y=0.076 $X2=0.5545 $Y2=0.076
r2 1 5 0.268519 $w=5.4e-08 $l=1.45e-08 $layer=<ENCRYPTED_LAYER_49>
+ $thickness=1e-09 $X=0.54 $Y=0.076 $X2=0.5545 $Y2=0.076
r3 3 1 0.268519 $w=5.4e-08 $l=1.45e-08 $layer=<ENCRYPTED_LAYER_49>
+ $thickness=1e-09 $X=0.5255 $Y=0.076 $X2=0.54 $Y2=0.076
r4 7 3 0.0462963 $w=5.4e-08 $l=2.5e-09 $layer=<ENCRYPTED_LAYER_49>
+ $thickness=1e-09 $X=0.5226 $Y=0.076 $X2=0.5255 $Y2=0.076
.ends

.subckt PM_ADDER_M_2bit%XI1/NET3 VSS 12 13 19 7 9 1 8 2
c1 1 VSS 0.0086917f $X=0.27 $Y=0.076
c2 2 VSS 0.00618366f $X=0.432 $Y=0.076
c3 7 VSS 0.00392435f $X=0.2555 $Y=0.076
c4 8 VSS 0.0275111f $X=0.434 $Y=0.076
c5 9 VSS 0.0179584f $X=0.27 $Y=0.058
r1 19 18 0.0462963 $w=5.4e-08 $l=2.5e-09 $layer=<ENCRYPTED_LAYER_49>
+ $thickness=1e-09 $X=0.4493 $Y=0.076 $X2=0.4465 $Y2=0.076
r2 8 18 0.231482 $w=5.4e-08 $l=1.25e-08 $layer=<ENCRYPTED_LAYER_49>
+ $thickness=1e-09 $X=0.434 $Y=0.076 $X2=0.4465 $Y2=0.076
r3 2 17 19.3796 $w=1.8e-08 $l=1.8e-08 $layer=<ENCRYPTED_LAYER_7> $X=0.432
+ $Y=0.076 $X2=0.432 $Y2=0.058
r4 16 17 15.7403 $w=1.8e-08 $l=6.75e-08 $layer=M1 $thickness=3.6e-08 $X=0.3645
+ $Y=0.058 $X2=0.432 $Y2=0.058
r5 15 16 15.7403 $w=1.8e-08 $l=6.75e-08 $layer=M1 $thickness=3.6e-08 $X=0.297
+ $Y=0.058 $X2=0.3645 $Y2=0.058
r6 14 15 3.14806 $w=1.8e-08 $l=1.35e-08 $layer=M1 $thickness=3.6e-08 $X=0.2835
+ $Y=0.058 $X2=0.297 $Y2=0.058
r7 9 14 3.14806 $w=1.8e-08 $l=1.35e-08 $layer=M1 $thickness=3.6e-08 $X=0.27
+ $Y=0.058 $X2=0.2835 $Y2=0.058
r8 1 9 19.3796 $w=1.8e-08 $l=1.8e-08 $layer=<ENCRYPTED_LAYER_7> $X=0.27
+ $Y=0.076 $X2=0.27 $Y2=0.058
r9 13 11 0.0462963 $w=5.4e-08 $l=2.5e-09 $layer=<ENCRYPTED_LAYER_49>
+ $thickness=1e-09 $X=0.2873 $Y=0.076 $X2=0.2845 $Y2=0.076
r10 1 11 0.268519 $w=5.4e-08 $l=1.45e-08 $layer=<ENCRYPTED_LAYER_49>
+ $thickness=1e-09 $X=0.27 $Y=0.076 $X2=0.2845 $Y2=0.076
r11 7 1 0.268519 $w=5.4e-08 $l=1.45e-08 $layer=<ENCRYPTED_LAYER_49>
+ $thickness=1e-09 $X=0.2555 $Y=0.076 $X2=0.27 $Y2=0.076
r12 12 7 0.0462963 $w=5.4e-08 $l=2.5e-09 $layer=<ENCRYPTED_LAYER_49>
+ $thickness=1e-09 $X=0.2526 $Y=0.076 $X2=0.2555 $Y2=0.076
r13 2 8 1e-05 $l=2e-09 $X=0.432 $Y=0.076 $X2=0.434 $Y2=0.076
.ends

.subckt PM_ADDER_M_2bit%XI1/NET4 VSS 12 13 19 7 1 9 8 2
c1 1 VSS 0.0087921f $X=0.27 $Y=0.238
c2 2 VSS 0.00625744f $X=0.432 $Y=0.238
c3 7 VSS 0.00418975f $X=0.2555 $Y=0.238
c4 8 VSS 0.0277682f $X=0.434 $Y=0.238
c5 9 VSS 0.017808f $X=0.27 $Y=0.256
r1 19 18 0.0462963 $w=5.4e-08 $l=2.5e-09 $layer=<ENCRYPTED_LAYER_48>
+ $thickness=1e-09 $X=0.4493 $Y=0.238 $X2=0.4465 $Y2=0.238
r2 8 18 0.231482 $w=5.4e-08 $l=1.25e-08 $layer=<ENCRYPTED_LAYER_48>
+ $thickness=1e-09 $X=0.434 $Y=0.238 $X2=0.4465 $Y2=0.238
r3 2 17 19.3796 $w=1.8e-08 $l=1.8e-08 $layer=<ENCRYPTED_LAYER_7> $X=0.432
+ $Y=0.238 $X2=0.432 $Y2=0.256
r4 16 17 15.7403 $w=1.8e-08 $l=6.75e-08 $layer=M1 $thickness=3.6e-08 $X=0.3645
+ $Y=0.256 $X2=0.432 $Y2=0.256
r5 15 16 15.7403 $w=1.8e-08 $l=6.75e-08 $layer=M1 $thickness=3.6e-08 $X=0.297
+ $Y=0.256 $X2=0.3645 $Y2=0.256
r6 14 15 3.14806 $w=1.8e-08 $l=1.35e-08 $layer=M1 $thickness=3.6e-08 $X=0.2835
+ $Y=0.256 $X2=0.297 $Y2=0.256
r7 9 14 3.14806 $w=1.8e-08 $l=1.35e-08 $layer=M1 $thickness=3.6e-08 $X=0.27
+ $Y=0.256 $X2=0.2835 $Y2=0.256
r8 1 9 19.3796 $w=1.8e-08 $l=1.8e-08 $layer=<ENCRYPTED_LAYER_7> $X=0.27
+ $Y=0.238 $X2=0.27 $Y2=0.256
r9 13 11 0.0462963 $w=5.4e-08 $l=2.5e-09 $layer=<ENCRYPTED_LAYER_48>
+ $thickness=1e-09 $X=0.2873 $Y=0.238 $X2=0.2845 $Y2=0.238
r10 1 11 0.268519 $w=5.4e-08 $l=1.45e-08 $layer=<ENCRYPTED_LAYER_48>
+ $thickness=1e-09 $X=0.27 $Y=0.238 $X2=0.2845 $Y2=0.238
r11 7 1 0.268519 $w=5.4e-08 $l=1.45e-08 $layer=<ENCRYPTED_LAYER_48>
+ $thickness=1e-09 $X=0.2555 $Y=0.238 $X2=0.27 $Y2=0.238
r12 12 7 0.0462963 $w=5.4e-08 $l=2.5e-09 $layer=<ENCRYPTED_LAYER_48>
+ $thickness=1e-09 $X=0.2526 $Y=0.238 $X2=0.2555 $Y2=0.238
r13 2 8 1e-05 $l=2e-09 $X=0.432 $Y=0.238 $X2=0.434 $Y2=0.238
.ends

.subckt PM_ADDER_M_2bit%XI0/NET7 VSS 12 13 18 19 7 9 8 2 1
c1 1 VSS 0.0080676f $X=0.648 $Y=0.346
c2 2 VSS 0.00602861f $X=0.756 $Y=0.346
c3 7 VSS 0.00406466f $X=0.6335 $Y=0.346
c4 8 VSS 0.00299194f $X=0.7415 $Y=0.346
c5 9 VSS 0.0114333f $X=0.648 $Y=0.328
r1 19 17 0.0462963 $w=5.4e-08 $l=2.5e-09 $layer=<ENCRYPTED_LAYER_48>
+ $thickness=1e-09 $X=0.7733 $Y=0.346 $X2=0.7705 $Y2=0.346
r2 2 17 0.268519 $w=5.4e-08 $l=1.45e-08 $layer=<ENCRYPTED_LAYER_48>
+ $thickness=1e-09 $X=0.756 $Y=0.346 $X2=0.7705 $Y2=0.346
r3 8 2 0.268519 $w=5.4e-08 $l=1.45e-08 $layer=<ENCRYPTED_LAYER_48>
+ $thickness=1e-09 $X=0.7415 $Y=0.346 $X2=0.756 $Y2=0.346
r4 18 8 0.0462963 $w=5.4e-08 $l=2.5e-09 $layer=<ENCRYPTED_LAYER_48>
+ $thickness=1e-09 $X=0.7386 $Y=0.346 $X2=0.7415 $Y2=0.346
r5 2 15 19.3796 $w=1.8e-08 $l=1.8e-08 $layer=<ENCRYPTED_LAYER_7> $X=0.756
+ $Y=0.346 $X2=0.756 $Y2=0.328
r6 14 15 12.5922 $w=1.8e-08 $l=5.4e-08 $layer=M1 $thickness=3.6e-08 $X=0.702
+ $Y=0.328 $X2=0.756 $Y2=0.328
r7 9 14 12.5922 $w=1.8e-08 $l=5.4e-08 $layer=M1 $thickness=3.6e-08 $X=0.648
+ $Y=0.328 $X2=0.702 $Y2=0.328
r8 1 9 19.3796 $w=1.8e-08 $l=1.8e-08 $layer=<ENCRYPTED_LAYER_7> $X=0.648
+ $Y=0.346 $X2=0.648 $Y2=0.328
r9 13 11 0.0462963 $w=5.4e-08 $l=2.5e-09 $layer=<ENCRYPTED_LAYER_48>
+ $thickness=1e-09 $X=0.6653 $Y=0.346 $X2=0.6625 $Y2=0.346
r10 1 11 0.268519 $w=5.4e-08 $l=1.45e-08 $layer=<ENCRYPTED_LAYER_48>
+ $thickness=1e-09 $X=0.648 $Y=0.346 $X2=0.6625 $Y2=0.346
r11 7 1 0.268519 $w=5.4e-08 $l=1.45e-08 $layer=<ENCRYPTED_LAYER_48>
+ $thickness=1e-09 $X=0.6335 $Y=0.346 $X2=0.648 $Y2=0.346
r12 12 7 0.0462963 $w=5.4e-08 $l=2.5e-09 $layer=<ENCRYPTED_LAYER_48>
+ $thickness=1e-09 $X=0.6306 $Y=0.346 $X2=0.6335 $Y2=0.346
.ends

.subckt PM_ADDER_M_2bit%XI1/NET7 VSS 12 13 18 19 7 9 8 2 1
c1 1 VSS 0.00806934f $X=0.648 $Y=0.238
c2 2 VSS 0.00604321f $X=0.756 $Y=0.238
c3 7 VSS 0.0040614f $X=0.6335 $Y=0.238
c4 8 VSS 0.00292637f $X=0.7415 $Y=0.238
c5 9 VSS 0.0114002f $X=0.648 $Y=0.256
r1 19 17 0.0462963 $w=5.4e-08 $l=2.5e-09 $layer=<ENCRYPTED_LAYER_48>
+ $thickness=1e-09 $X=0.7733 $Y=0.238 $X2=0.7705 $Y2=0.238
r2 2 17 0.268519 $w=5.4e-08 $l=1.45e-08 $layer=<ENCRYPTED_LAYER_48>
+ $thickness=1e-09 $X=0.756 $Y=0.238 $X2=0.7705 $Y2=0.238
r3 8 2 0.268519 $w=5.4e-08 $l=1.45e-08 $layer=<ENCRYPTED_LAYER_48>
+ $thickness=1e-09 $X=0.7415 $Y=0.238 $X2=0.756 $Y2=0.238
r4 18 8 0.0462963 $w=5.4e-08 $l=2.5e-09 $layer=<ENCRYPTED_LAYER_48>
+ $thickness=1e-09 $X=0.7386 $Y=0.238 $X2=0.7415 $Y2=0.238
r5 2 15 19.3796 $w=1.8e-08 $l=1.8e-08 $layer=<ENCRYPTED_LAYER_7> $X=0.756
+ $Y=0.238 $X2=0.756 $Y2=0.256
r6 14 15 12.5922 $w=1.8e-08 $l=5.4e-08 $layer=M1 $thickness=3.6e-08 $X=0.702
+ $Y=0.256 $X2=0.756 $Y2=0.256
r7 9 14 12.5922 $w=1.8e-08 $l=5.4e-08 $layer=M1 $thickness=3.6e-08 $X=0.648
+ $Y=0.256 $X2=0.702 $Y2=0.256
r8 1 9 19.3796 $w=1.8e-08 $l=1.8e-08 $layer=<ENCRYPTED_LAYER_7> $X=0.648
+ $Y=0.238 $X2=0.648 $Y2=0.256
r9 13 11 0.0462963 $w=5.4e-08 $l=2.5e-09 $layer=<ENCRYPTED_LAYER_48>
+ $thickness=1e-09 $X=0.6653 $Y=0.238 $X2=0.6625 $Y2=0.238
r10 1 11 0.268519 $w=5.4e-08 $l=1.45e-08 $layer=<ENCRYPTED_LAYER_48>
+ $thickness=1e-09 $X=0.648 $Y=0.238 $X2=0.6625 $Y2=0.238
r11 7 1 0.268519 $w=5.4e-08 $l=1.45e-08 $layer=<ENCRYPTED_LAYER_48>
+ $thickness=1e-09 $X=0.6335 $Y=0.238 $X2=0.648 $Y2=0.238
r12 12 7 0.0462963 $w=5.4e-08 $l=2.5e-09 $layer=<ENCRYPTED_LAYER_48>
+ $thickness=1e-09 $X=0.6306 $Y=0.238 $X2=0.6335 $Y2=0.238
.ends

.subckt PM_ADDER_M_2bit%XI0/NET5 VSS 6 7 3 1
c1 1 VSS 0.00436142f $X=0.54 $Y=0.346
c2 3 VSS 0.00321706f $X=0.5255 $Y=0.346
r1 7 5 0.0462963 $w=5.4e-08 $l=2.5e-09 $layer=<ENCRYPTED_LAYER_48>
+ $thickness=1e-09 $X=0.5573 $Y=0.346 $X2=0.5545 $Y2=0.346
r2 1 5 0.268519 $w=5.4e-08 $l=1.45e-08 $layer=<ENCRYPTED_LAYER_48>
+ $thickness=1e-09 $X=0.54 $Y=0.346 $X2=0.5545 $Y2=0.346
r3 3 1 0.268519 $w=5.4e-08 $l=1.45e-08 $layer=<ENCRYPTED_LAYER_48>
+ $thickness=1e-09 $X=0.5255 $Y=0.346 $X2=0.54 $Y2=0.346
r4 6 3 0.0462963 $w=5.4e-08 $l=2.5e-09 $layer=<ENCRYPTED_LAYER_48>
+ $thickness=1e-09 $X=0.5226 $Y=0.346 $X2=0.5255 $Y2=0.346
.ends

.subckt PM_ADDER_M_2bit%NET7 VSS 40 44 77 80 83 86 96 100 111 113 33 27 10 9 25
+ 23 22 21 20 26 19 16 32 34 31 29 28 24 3 2 4 30 1 35 18 15 17
c1 1 VSS 0.00276732f $X=0.243 $Y=0.157
c2 2 VSS 0.000264103f $X=0.513 $Y=0.157
c3 3 VSS 0.00136776f $X=0.675 $Y=0.157
c4 4 VSS 0.000286459f $X=0.891 $Y=0.157
c5 9 VSS 0.00962979f $X=0.108 $Y=0.076
c6 10 VSS 0.00957385f $X=0.108 $Y=0.238
c7 15 VSS 0.0667959f $X=0.243 $Y=0.157
c8 16 VSS 0.0053926f $X=0.513 $Y=0.157
c9 17 VSS 0.0599069f $X=0.675 $Y=0.0465
c10 18 VSS 0.00558601f $X=0.891 $Y=0.157
c11 19 VSS 0.045806f $X=0.0935 $Y=0.2245
c12 20 VSS 0.0469448f $X=0.0935 $Y=0.0895
c13 21 VSS 0.00778426f $X=0.135 $Y=0.058
c14 22 VSS 0.00691634f $X=0.135 $Y=0.256
c15 23 VSS 0.000526709f $X=0.135 $Y=0.103
c16 24 VSS 0.00180077f $X=0.243 $Y=0.103
c17 25 VSS 0.00115318f $X=0.135 $Y=0.093
c18 26 VSS 0.00530269f $X=0.135 $Y=0.13
c19 27 VSS 0.00485548f $X=0.1895 $Y=0.103
c20 28 VSS 0.000856056f $X=0.243 $Y=0.1245
c21 29 VSS 0.000513415f $X=0.513 $Y=0.093
c22 30 VSS 0.000290917f $X=0.675 $Y=0.1425
c23 31 VSS 0.00120886f $X=0.891 $Y=0.093
c24 32 VSS 0.000555361f $X=0.675 $Y=0.103
c25 33 VSS 0.0189409f $X=0.648 $Y=0.103
c26 34 VSS 0.000236608f $X=0.675 $Y=0.157
c27 35 VSS 0.00959546f $X=0.702 $Y=0.103
r1 19 10 0.154321 $w=8.1e-08 $l=1.25e-08 $layer=<ENCRYPTED_LAYER_48>
+ $thickness=1e-09 $X=0.0935 $Y=0.2245 $X2=0.108 $Y2=0.238
r2 113 19 0.0308642 $w=8.1e-08 $l=2.5e-09 $layer=<ENCRYPTED_LAYER_48>
+ $thickness=1e-09 $X=0.0906 $Y=0.2245 $X2=0.0935 $Y2=0.2245
r3 20 9 0.154321 $w=8.1e-08 $l=1.25e-08 $layer=<ENCRYPTED_LAYER_49>
+ $thickness=1e-09 $X=0.0935 $Y=0.0895 $X2=0.108 $Y2=0.076
r4 111 20 0.0308642 $w=8.1e-08 $l=2.5e-09 $layer=<ENCRYPTED_LAYER_49>
+ $thickness=1e-09 $X=0.0906 $Y=0.0895 $X2=0.0935 $Y2=0.0895
r5 10 106 19.3796 $w=1.8e-08 $l=1.8e-08 $layer=<ENCRYPTED_LAYER_7> $X=0.108
+ $Y=0.238 $X2=0.108 $Y2=0.256
r6 9 103 19.3796 $w=1.8e-08 $l=1.8e-08 $layer=<ENCRYPTED_LAYER_7> $X=0.108
+ $Y=0.076 $X2=0.108 $Y2=0.058
r7 106 107 3.03147 $w=1.8e-08 $l=1.3e-08 $layer=M1 $thickness=3.6e-08 $X=0.108
+ $Y=0.256 $X2=0.121 $Y2=0.256
r8 22 93 1.7014 $w=1.85714e-08 $l=1.3e-08 $layer=M1 $thickness=3.6e-08 $X=0.135
+ $Y=0.256 $X2=0.135 $Y2=0.243
r9 22 107 1.9532 $w=1.8e-08 $l=1.4e-08 $layer=M1 $thickness=3.6e-08 $X=0.135
+ $Y=0.256 $X2=0.121 $Y2=0.256
r10 103 104 3.03147 $w=1.8e-08 $l=1.3e-08 $layer=M1 $thickness=3.6e-08 $X=0.108
+ $Y=0.058 $X2=0.121 $Y2=0.058
r11 21 89 1.7014 $w=1.85714e-08 $l=1.3e-08 $layer=M1 $thickness=3.6e-08
+ $X=0.135 $Y=0.058 $X2=0.135 $Y2=0.071
r12 21 104 1.9532 $w=1.8e-08 $l=1.4e-08 $layer=M1 $thickness=3.6e-08 $X=0.135
+ $Y=0.058 $X2=0.121 $Y2=0.058
r13 100 99 14.6259 $w=2e-08 $l=4.3e-08 $layer=<ENCRYPTED_LAYER_23>
+ $thickness=5.6e-08 $X=0.243 $Y=0.238 $X2=0.243 $Y2=0.195
r14 98 99 7.31297 $w=2e-08 $l=2.15e-08 $layer=<ENCRYPTED_LAYER_23>
+ $thickness=5.6e-08 $X=0.243 $Y=0.1735 $X2=0.243 $Y2=0.195
r15 96 97 14.6259 $w=2e-08 $l=4.3e-08 $layer=<ENCRYPTED_LAYER_23>
+ $thickness=5.6e-08 $X=0.243 $Y=0.076 $X2=0.243 $Y2=0.119
r16 94 97 7.31297 $w=2e-08 $l=2.15e-08 $layer=<ENCRYPTED_LAYER_23>
+ $thickness=5.6e-08 $X=0.243 $Y=0.1405 $X2=0.243 $Y2=0.119
r17 15 94 5.79936 $w=2e-08 $l=1.65e-08 $layer=<ENCRYPTED_LAYER_23>
+ $thickness=5.6e-08 $X=0.243 $Y=0.157 $X2=0.243 $Y2=0.1405
r18 15 98 5.79936 $w=2e-08 $l=1.65e-08 $layer=<ENCRYPTED_LAYER_23>
+ $thickness=5.6e-08 $X=0.243 $Y=0.157 $X2=0.243 $Y2=0.1735
r19 92 93 2.128 $w=2e-08 $l=1.25e-08 $layer=M1 $thickness=3.6e-08 $X=0.135
+ $Y=0.2305 $X2=0.135 $Y2=0.243
r20 91 92 6.21376 $w=2e-08 $l=3.65e-08 $layer=M1 $thickness=3.6e-08 $X=0.135
+ $Y=0.194 $X2=0.135 $Y2=0.2305
r21 90 91 6.29888 $w=2e-08 $l=3.7e-08 $layer=M1 $thickness=3.6e-08 $X=0.135
+ $Y=0.157 $X2=0.135 $Y2=0.194
r22 26 90 4.59648 $w=2e-08 $l=2.7e-08 $layer=M1 $thickness=3.6e-08 $X=0.135
+ $Y=0.13 $X2=0.135 $Y2=0.157
r23 88 89 2.128 $w=2e-08 $l=1.25e-08 $layer=M1 $thickness=3.6e-08 $X=0.135
+ $Y=0.0835 $X2=0.135 $Y2=0.071
r24 25 88 1.61728 $w=2e-08 $l=9.5e-09 $layer=M1 $thickness=3.6e-08 $X=0.135
+ $Y=0.093 $X2=0.135 $Y2=0.0835
r25 86 85 16.4967 $w=2e-08 $l=4.85e-08 $layer=<ENCRYPTED_LAYER_23>
+ $thickness=5.6e-08 $X=0.891 $Y=0.238 $X2=0.891 $Y2=0.1895
r26 83 84 16.4967 $w=2e-08 $l=4.85e-08 $layer=<ENCRYPTED_LAYER_23>
+ $thickness=5.6e-08 $X=0.891 $Y=0.076 $X2=0.891 $Y2=0.1245
r27 18 84 11.2416 $w=2e-08 $l=3.25e-08 $layer=<ENCRYPTED_LAYER_23>
+ $thickness=5.6e-08 $X=0.891 $Y=0.157 $X2=0.891 $Y2=0.1245
r28 18 85 11.2416 $w=2e-08 $l=3.25e-08 $layer=<ENCRYPTED_LAYER_23>
+ $thickness=5.6e-08 $X=0.891 $Y=0.157 $X2=0.891 $Y2=0.1895
r29 1 75 19.3796 $w=1.8e-08 $l=1.8e-08 $layer=<ENCRYPTED_LAYER_4> $X=0.243
+ $Y=0.157 $X2=0.243 $Y2=0.157
r30 1 15 10.4265 $w=2.1e-08 $layer=LIG $thickness=5.2e-08 $X=0.243 $Y=0.157
+ $X2=0.243 $Y2=0.157
r31 23 27 11.3459 $w=1.8e-08 $l=5.45e-08 $layer=M1 $thickness=3.6e-08 $X=0.135
+ $Y=0.103 $X2=0.1895 $Y2=0.103
r32 23 25 0.95508 $w=2e-08 $l=1e-08 $layer=M1 $thickness=3.6e-08 $X=0.135
+ $Y=0.103 $X2=0.135 $Y2=0.093
r33 23 26 3.84916 $w=2e-08 $l=2.7e-08 $layer=M1 $thickness=3.6e-08 $X=0.135
+ $Y=0.103 $X2=0.135 $Y2=0.13
r34 80 79 16.4967 $w=2e-08 $l=4.85e-08 $layer=<ENCRYPTED_LAYER_23>
+ $thickness=5.6e-08 $X=0.513 $Y=0.238 $X2=0.513 $Y2=0.1895
r35 77 78 16.4967 $w=2e-08 $l=4.85e-08 $layer=<ENCRYPTED_LAYER_23>
+ $thickness=5.6e-08 $X=0.513 $Y=0.076 $X2=0.513 $Y2=0.1245
r36 16 78 11.2416 $w=2e-08 $l=3.25e-08 $layer=<ENCRYPTED_LAYER_23>
+ $thickness=5.6e-08 $X=0.513 $Y=0.157 $X2=0.513 $Y2=0.1245
r37 16 79 11.2416 $w=2e-08 $l=3.25e-08 $layer=<ENCRYPTED_LAYER_23>
+ $thickness=5.6e-08 $X=0.513 $Y=0.157 $X2=0.513 $Y2=0.1895
r38 4 73 19.3796 $w=1.8e-08 $l=1.8e-08 $layer=<ENCRYPTED_LAYER_4> $X=0.891
+ $Y=0.157 $X2=0.891 $Y2=0.157
r39 4 18 10.4265 $w=2.1e-08 $layer=LIG $thickness=5.2e-08 $X=0.891 $Y=0.157
+ $X2=0.891 $Y2=0.157
r40 74 75 3.38125 $w=1.8e-08 $l=1.45e-08 $layer=M1 $thickness=3.6e-08 $X=0.243
+ $Y=0.1425 $X2=0.243 $Y2=0.157
r41 28 74 4.19742 $w=1.8e-08 $l=1.8e-08 $layer=M1 $thickness=3.6e-08 $X=0.243
+ $Y=0.1245 $X2=0.243 $Y2=0.1425
r42 2 68 19.3796 $w=1.8e-08 $l=1.8e-08 $layer=<ENCRYPTED_LAYER_4> $X=0.513
+ $Y=0.157 $X2=0.513 $Y2=0.157
r43 2 16 10.4265 $w=2.1e-08 $layer=LIG $thickness=5.2e-08 $X=0.513 $Y=0.157
+ $X2=0.513 $Y2=0.157
r44 72 73 3.38125 $w=1.8e-08 $l=1.45e-08 $layer=M1 $thickness=3.6e-08 $X=0.891
+ $Y=0.1425 $X2=0.891 $Y2=0.157
r45 71 72 4.19742 $w=1.8e-08 $l=1.8e-08 $layer=M1 $thickness=3.6e-08 $X=0.891
+ $Y=0.1245 $X2=0.891 $Y2=0.1425
r46 70 71 5.01358 $w=1.8e-08 $l=2.15e-08 $layer=M1 $thickness=3.6e-08 $X=0.891
+ $Y=0.103 $X2=0.891 $Y2=0.1245
r47 31 70 2.3319 $w=1.8e-08 $l=1e-08 $layer=M1 $thickness=3.6e-08 $X=0.891
+ $Y=0.093 $X2=0.891 $Y2=0.103
r48 24 57 19.5347 $w=1.8e-08 $l=1.8e-08 $layer=V1 $X=0.243 $Y=0.103 $X2=0.243
+ $Y2=0.103
r49 24 27 11.2953 $w=1.8e-08 $l=5.35e-08 $layer=M1 $thickness=3.6e-08 $X=0.243
+ $Y=0.103 $X2=0.1895 $Y2=0.103
r50 24 28 3.83327 $w=1.8e-08 $l=2.15e-08 $layer=M1 $thickness=3.6e-08 $X=0.243
+ $Y=0.103 $X2=0.243 $Y2=0.1245
r51 67 68 3.38125 $w=1.8e-08 $l=1.45e-08 $layer=M1 $thickness=3.6e-08 $X=0.513
+ $Y=0.1425 $X2=0.513 $Y2=0.157
r52 66 67 4.19742 $w=1.8e-08 $l=1.8e-08 $layer=M1 $thickness=3.6e-08 $X=0.513
+ $Y=0.1245 $X2=0.513 $Y2=0.1425
r53 65 66 3.96423 $w=1.8e-08 $l=1.7e-08 $layer=M1 $thickness=3.6e-08 $X=0.513
+ $Y=0.1075 $X2=0.513 $Y2=0.1245
r54 64 65 2.09871 $w=1.8e-08 $l=9e-09 $layer=M1 $thickness=3.6e-08 $X=0.513
+ $Y=0.0985 $X2=0.513 $Y2=0.1075
r55 29 64 1.28254 $w=1.8e-08 $l=5.5e-09 $layer=M1 $thickness=3.6e-08 $X=0.513
+ $Y=0.093 $X2=0.513 $Y2=0.0985
r56 63 70 19.5347 $w=1.8e-08 $l=1.8e-08 $layer=V1 $X=0.891 $Y=0.103 $X2=0.891
+ $Y2=0.103
r57 62 63 6.29612 $w=1.8e-08 $l=2.7e-08 $layer=M2 $thickness=3.6e-08 $X=0.864
+ $Y=0.103 $X2=0.891 $Y2=0.103
r58 61 62 6.29612 $w=1.8e-08 $l=2.7e-08 $layer=M2 $thickness=3.6e-08 $X=0.837
+ $Y=0.103 $X2=0.864 $Y2=0.103
r59 60 61 12.5922 $w=1.8e-08 $l=5.4e-08 $layer=M2 $thickness=3.6e-08 $X=0.783
+ $Y=0.103 $X2=0.837 $Y2=0.103
r60 59 60 12.5922 $w=1.8e-08 $l=5.4e-08 $layer=M2 $thickness=3.6e-08 $X=0.729
+ $Y=0.103 $X2=0.783 $Y2=0.103
r61 35 59 6.29612 $w=1.8e-08 $l=2.7e-08 $layer=M2 $thickness=3.6e-08 $X=0.702
+ $Y=0.103 $X2=0.729 $Y2=0.103
r62 57 58 25.1845 $w=1.8e-08 $l=1.08e-07 $layer=M2 $thickness=3.6e-08 $X=0.243
+ $Y=0.103 $X2=0.351 $Y2=0.103
r63 56 58 25.1845 $w=1.8e-08 $l=1.08e-07 $layer=M2 $thickness=3.6e-08 $X=0.459
+ $Y=0.103 $X2=0.351 $Y2=0.103
r64 54 55 6.29612 $w=1.8e-08 $l=2.7e-08 $layer=M2 $thickness=3.6e-08 $X=0.513
+ $Y=0.103 $X2=0.54 $Y2=0.103
r65 54 64 19.5347 $w=1.8e-08 $l=1.8e-08 $layer=V1 $X=0.513 $Y=0.103 $X2=0.513
+ $Y2=0.0985
r66 53 54 6.29612 $w=1.8e-08 $l=2.7e-08 $layer=M2 $thickness=3.6e-08 $X=0.486
+ $Y=0.103 $X2=0.513 $Y2=0.103
r67 53 56 6.29612 $w=1.8e-08 $l=2.7e-08 $layer=M2 $thickness=3.6e-08 $X=0.486
+ $Y=0.103 $X2=0.459 $Y2=0.103
r68 52 55 6.29612 $w=1.8e-08 $l=2.7e-08 $layer=M2 $thickness=3.6e-08 $X=0.567
+ $Y=0.103 $X2=0.54 $Y2=0.103
r69 51 52 6.29612 $w=1.8e-08 $l=2.7e-08 $layer=M2 $thickness=3.6e-08 $X=0.594
+ $Y=0.103 $X2=0.567 $Y2=0.103
r70 50 51 6.29612 $w=1.8e-08 $l=2.7e-08 $layer=M2 $thickness=3.6e-08 $X=0.621
+ $Y=0.103 $X2=0.594 $Y2=0.103
r71 33 50 6.29612 $w=1.8e-08 $l=2.7e-08 $layer=M2 $thickness=3.6e-08 $X=0.648
+ $Y=0.103 $X2=0.621 $Y2=0.103
r72 32 49 3.83327 $w=1.8e-08 $l=2.15e-08 $layer=M2 $thickness=3.6e-08 $X=0.675
+ $Y=0.103 $X2=0.675 $Y2=0.1245
r73 32 33 5.11582 $w=1.8e-08 $l=2.7e-08 $layer=M2 $thickness=3.6e-08 $X=0.675
+ $Y=0.103 $X2=0.648 $Y2=0.103
r74 32 35 5.11582 $w=1.8e-08 $l=2.7e-08 $layer=M2 $thickness=3.6e-08 $X=0.675
+ $Y=0.103 $X2=0.702 $Y2=0.103
r75 48 49 4.19742 $w=1.8e-08 $l=1.8e-08 $layer=M2 $thickness=3.6e-08 $X=0.675
+ $Y=0.1425 $X2=0.675 $Y2=0.1245
r76 34 46 19.5347 $w=1.8e-08 $l=1.8e-08 $layer=V1 $X=0.675 $Y=0.157 $X2=0.675
+ $Y2=0.157
r77 34 48 3.38125 $w=1.8e-08 $l=1.45e-08 $layer=M2 $thickness=3.6e-08 $X=0.675
+ $Y=0.157 $X2=0.675 $Y2=0.1425
r78 30 46 3.38125 $w=1.8e-08 $l=1.45e-08 $layer=M1 $thickness=3.6e-08 $X=0.675
+ $Y=0.1425 $X2=0.675 $Y2=0.157
r79 3 42 10.4265 $w=2.1e-08 $layer=LIG $thickness=5.2e-08 $X=0.675 $Y=0.157
+ $X2=0.675 $Y2=0.157
r80 3 46 19.3796 $w=1.8e-08 $l=1.8e-08 $layer=<ENCRYPTED_LAYER_4> $X=0.675
+ $Y=0.157 $X2=0.675 $Y2=0.157
r81 44 43 16.4967 $w=2e-08 $l=4.85e-08 $layer=<ENCRYPTED_LAYER_23>
+ $thickness=5.6e-08 $X=0.675 $Y=0.238 $X2=0.675 $Y2=0.1895
r82 42 43 11.2416 $w=2e-08 $l=3.25e-08 $layer=<ENCRYPTED_LAYER_23>
+ $thickness=5.6e-08 $X=0.675 $Y=0.157 $X2=0.675 $Y2=0.1895
r83 41 42 11.2416 $w=2e-08 $l=3.25e-08 $layer=<ENCRYPTED_LAYER_23>
+ $thickness=5.6e-08 $X=0.675 $Y=0.1245 $X2=0.675 $Y2=0.157
r84 40 41 16.4967 $w=2e-08 $l=4.85e-08 $layer=<ENCRYPTED_LAYER_23>
+ $thickness=5.6e-08 $X=0.675 $Y=0.076 $X2=0.675 $Y2=0.1245
r85 40 17 10.0341 $w=2e-08 $l=2.95e-08 $layer=<ENCRYPTED_LAYER_23>
+ $thickness=5.6e-08 $X=0.675 $Y=0.076 $X2=0.675 $Y2=0.0465
.ends

.subckt PM_ADDER_M_2bit%XI1/NET1 VSS 6 7 3 1
c1 1 VSS 0.00280307f $X=0.864 $Y=0.076
c2 3 VSS 0.00214469f $X=0.8495 $Y=0.076
r1 7 5 0.0462963 $w=5.4e-08 $l=2.5e-09 $layer=<ENCRYPTED_LAYER_49>