* Design:	MUX_1S_3B
* Created:	"Thu Dec 8 2022"
* Vendor:	"Mentor Graphics Corporation"
* Program:	"Calibre xACT 3D"
* Version:	"v2017.4_19.14"
* Corner Name: typical_27
* Nominal Temperature: 25C
* Circuit Temperature: 27C
* 
* Integrated TICER reduction is not enabled.
* SHORT DELAY THRESHOLD: 2e-15
* Fill Mode: NG
* PEX REDUCE CC ABSOLUTE : 1
* PEX REDUCE CC RELATIVE : 0.01
* Delta transform mode : 344834

* .include "MUX_1S_3B.pex.netlist.pex"

* Start of included file MUX_1S_3B.pex.netlist.pex

.subckt PM_MUX_1S_3B%B<2> VSS 18 14 30 7 1 11 9 8 2 12
c1 1 VSS 0.00478912f $X=0.287 $Y=0.1175
c2 2 VSS 0.00492737f $X=0.395 $Y=0.2525
c3 7 VSS 0.0373896f $X=0.289 $Y=0.1175
c4 8 VSS 0.00236511f $X=0.397 $Y=0.2525
c5 9 VSS 0.000624448f $X=0.2735 $Y=0.138
c6 10 VSS 0.00260685f $X=0.26 $Y=0.279
c7 11 VSS 0.00263122f $X=0.26 $Y=0.159
c8 12 VSS 0.0105997f $X=0.2825 $Y=0.279
r1 30 29 0.0308642 $w=8.1e-08 $l=2.5e-09 $layer=<ENCRYPTED_LAYER_49>
+ $thickness=1e-09 $X=0.4123 $Y=0.2525 $X2=0.4095 $Y2=0.2525
r2 8 29 0.154321 $w=8.1e-08 $l=1.25e-08 $layer=<ENCRYPTED_LAYER_49>
+ $thickness=1e-09 $X=0.397 $Y=0.2525 $X2=0.4095 $Y2=0.2525
r3 2 28 19.3796 $w=1.8e-08 $l=1.8e-08 $layer=<ENCRYPTED_LAYER_7> $X=0.395
+ $Y=0.2525 $X2=0.395 $Y2=0.279
r4 27 28 3.14806 $w=1.8e-08 $l=1.35e-08 $layer=M1 $thickness=3.6e-08 $X=0.3815
+ $Y=0.279 $X2=0.395 $Y2=0.279
r5 26 27 3.14806 $w=1.8e-08 $l=1.35e-08 $layer=M1 $thickness=3.6e-08 $X=0.368
+ $Y=0.279 $X2=0.3815 $Y2=0.279
r6 25 26 3.14806 $w=1.8e-08 $l=1.35e-08 $layer=M1 $thickness=3.6e-08 $X=0.3545
+ $Y=0.279 $X2=0.368 $Y2=0.279
r7 24 25 4.19742 $w=1.8e-08 $l=1.8e-08 $layer=M1 $thickness=3.6e-08 $X=0.3365
+ $Y=0.279 $X2=0.3545 $Y2=0.279
r8 23 24 5.24677 $w=1.8e-08 $l=2.25e-08 $layer=M1 $thickness=3.6e-08 $X=0.314
+ $Y=0.279 $X2=0.3365 $Y2=0.279
r9 22 23 3.14806 $w=1.8e-08 $l=1.35e-08 $layer=M1 $thickness=3.6e-08 $X=0.3005
+ $Y=0.279 $X2=0.314 $Y2=0.279
r10 12 22 4.19742 $w=1.8e-08 $l=1.8e-08 $layer=M1 $thickness=3.6e-08 $X=0.2825
+ $Y=0.279 $X2=0.3005 $Y2=0.279
r11 10 21 2.43171 $w=1.8e-08 $l=1.75e-08 $layer=M1 $thickness=3.6e-08 $X=0.26
+ $Y=0.279 $X2=0.26 $Y2=0.2615
r12 10 12 3.59766 $w=1.8e-08 $l=2.25e-08 $layer=M1 $thickness=3.6e-08 $X=0.26
+ $Y=0.279 $X2=0.2825 $Y2=0.279
r13 20 21 2.56509 $w=1.8e-08 $l=1.1e-08 $layer=M1 $thickness=3.6e-08 $X=0.26
+ $Y=0.2505 $X2=0.26 $Y2=0.2615
r14 19 20 2.68168 $w=1.8e-08 $l=1.15e-08 $layer=M1 $thickness=3.6e-08 $X=0.26
+ $Y=0.239 $X2=0.26 $Y2=0.2505
r15 18 19 5.71315 $w=1.8e-08 $l=2.45e-08 $layer=M1 $thickness=3.6e-08 $X=0.261
+ $Y=0.209 $X2=0.26 $Y2=0.239
r16 18 17 6.8791 $w=1.8e-08 $l=2.95e-08 $layer=M1 $thickness=3.6e-08 $X=0.261
+ $Y=0.209 $X2=0.26 $Y2=0.185
r17 11 16 3.71668 $w=1.8e-08 $l=2.1e-08 $layer=M1 $thickness=3.6e-08 $X=0.26
+ $Y=0.159 $X2=0.26 $Y2=0.138
r18 11 17 6.06293 $w=1.8e-08 $l=2.6e-08 $layer=M1 $thickness=3.6e-08 $X=0.26
+ $Y=0.159 $X2=0.26 $Y2=0.185
r19 9 15 3.14806 $w=1.8e-08 $l=1.35e-08 $layer=M1 $thickness=3.6e-08 $X=0.2735
+ $Y=0.138 $X2=0.287 $Y2=0.138
r20 9 16 1.96775 $w=1.8e-08 $l=1.35e-08 $layer=M1 $thickness=3.6e-08 $X=0.2735
+ $Y=0.138 $X2=0.26 $Y2=0.138
r21 1 15 19.3796 $w=1.8e-08 $l=1.8e-08 $layer=<ENCRYPTED_LAYER_7> $X=0.287
+ $Y=0.1175 $X2=0.287 $Y2=0.138
r22 14 13 0.0308642 $w=8.1e-08 $l=2.5e-09 $layer=<ENCRYPTED_LAYER_48>
+ $thickness=1e-09 $X=0.3043 $Y=0.1175 $X2=0.3015 $Y2=0.1175
r23 7 13 0.154321 $w=8.1e-08 $l=1.25e-08 $layer=<ENCRYPTED_LAYER_48>
+ $thickness=1e-09 $X=0.289 $Y=0.1175 $X2=0.3015 $Y2=0.1175
r24 2 8 1e-05 $l=2e-09 $X=0.395 $Y=0.2525 $X2=0.397 $Y2=0.2525
r25 1 7 1e-05 $l=2e-09 $X=0.287 $Y=0.1175 $X2=0.289 $Y2=0.1175
.ends

.subckt PM_MUX_1S_3B%A<0> VSS 30 22 39 7 13 1 2 10 8 11 14 15 9 12 16
c1 1 VSS 0.00603231f $X=1.421 $Y=0.2525
c2 2 VSS 0.00492176f $X=1.529 $Y=0.1175
c3 7 VSS 0.00282995f $X=1.531 $Y=0.1175
c4 8 VSS 0.0389443f $X=1.423 $Y=0.2525
c5 9 VSS 0.00288939f $X=1.4095 $Y=0.262
c6 10 VSS 0.00425399f $X=1.512 $Y=0.091
c7 11 VSS 0.00162727f $X=1.528 $Y=0.091
c8 12 VSS 0.00168961f $X=1.4095 $Y=0.262
c9 13 VSS 0.000721728f $X=1.499 $Y=0.11
c10 14 VSS 0.000800466f $X=1.421 $Y=0.091
c11 15 VSS 0.00295447f $X=1.421 $Y=0.1247
c12 16 VSS 0.00230791f $X=1.4745 $Y=0.091
r1 39 38 0.0308642 $w=8.1e-08 $l=2.5e-09 $layer=<ENCRYPTED_LAYER_49>
+ $thickness=1e-09 $X=1.4383 $Y=0.2525 $X2=1.4355 $Y2=0.2525
r2 8 38 0.154321 $w=8.1e-08 $l=1.25e-08 $layer=<ENCRYPTED_LAYER_49>
+ $thickness=1e-09 $X=1.423 $Y=0.2525 $X2=1.4355 $Y2=0.2525
r3 1 36 19.3796 $w=1.8e-08 $l=1.8e-08 $layer=<ENCRYPTED_LAYER_7> $X=1.421
+ $Y=0.2525 $X2=1.421 $Y2=0.262
r4 9 36 2.68168 $w=1.8e-08 $l=1.15e-08 $layer=M1 $thickness=3.6e-08 $X=1.4095
+ $Y=0.262 $X2=1.421 $Y2=0.262
r5 34 36 19.5347 $w=1.8e-08 $l=1.8e-08 $layer=V1 $X=1.421 $Y=0.262 $X2=1.421
+ $Y2=0.262
r6 12 34 2.68168 $w=1.8e-08 $l=1.15e-08 $layer=M2 $thickness=3.6e-08 $X=1.4095
+ $Y=0.262 $X2=1.421 $Y2=0.262
r7 32 34 19.5347 $w=1.8e-08 $l=1.8e-08 $layer=V2 $X=1.421 $Y=0.262 $X2=1.421
+ $Y2=0.262
r8 31 32 14.0497 $w=1.8e-08 $l=6.03e-08 $layer=M3 $thickness=3.6e-08 $X=1.421
+ $Y=0.2017 $X2=1.421 $Y2=0.262
r9 30 31 12.0676 $w=1.8e-08 $l=5.17e-08 $layer=M3 $thickness=3.6e-08 $X=1.42
+ $Y=0.15 $X2=1.421 $Y2=0.2017
r10 30 15 5.88804 $w=1.8e-08 $l=2.53e-08 $layer=M3 $thickness=3.6e-08 $X=1.42
+ $Y=0.15 $X2=1.421 $Y2=0.1247
r11 14 16 10.8265 $w=1.8e-08 $l=5.35e-08 $layer=M3 $thickness=3.6e-08 $X=1.421
+ $Y=0.091 $X2=1.4745 $Y2=0.091
r12 14 15 6.22104 $w=1.8e-08 $l=3.37e-08 $layer=M3 $thickness=3.6e-08 $X=1.421
+ $Y=0.091 $X2=1.421 $Y2=0.1247
r13 13 27 5.5822 $w=1.8e-08 $l=2.9e-08 $layer=M2 $thickness=3.6e-08 $X=1.499
+ $Y=0.11 $X2=1.528 $Y2=0.11
r14 16 28 12.4757 $w=1.8e-08 $l=5.35e-08 $layer=M3 $thickness=3.6e-08 $X=1.4745
+ $Y=0.091 $X2=1.528 $Y2=0.091
r15 26 27 1.03499 $w=1.8e-08 $l=9.5e-09 $layer=M2 $thickness=3.6e-08 $X=1.528
+ $Y=0.1005 $X2=1.528 $Y2=0.11
r16 11 23 19.5347 $w=1.8e-08 $l=1.8e-08 $layer=V1 $X=1.528 $Y=0.091 $X2=1.528
+ $Y2=0.091
r17 11 26 2.2153 $w=1.8e-08 $l=9.5e-09 $layer=M2 $thickness=3.6e-08 $X=1.528
+ $Y=0.091 $X2=1.528 $Y2=0.1005
r18 11 28 19.5347 $w=1.8e-08 $l=1.8e-08 $layer=V2 $X=1.528 $Y=0.091 $X2=1.528
+ $Y2=0.091
r19 10 23 3.73104 $w=1.8e-08 $l=1.6e-08 $layer=M1 $thickness=3.6e-08 $X=1.512
+ $Y=0.091 $X2=1.528 $Y2=0.091
r20 2 23 19.3796 $w=1.8e-08 $l=1.8e-08 $layer=<ENCRYPTED_LAYER_7> $X=1.529
+ $Y=0.1175 $X2=1.528 $Y2=0.091
r21 22 21 0.0308642 $w=8.1e-08 $l=2.5e-09 $layer=<ENCRYPTED_LAYER_48>
+ $thickness=1e-09 $X=1.5463 $Y=0.1175 $X2=1.5435 $Y2=0.1175
r22 7 21 0.154321 $w=8.1e-08 $l=1.25e-08 $layer=<ENCRYPTED_LAYER_48>
+ $thickness=1e-09 $X=1.531 $Y=0.1175 $X2=1.5435 $Y2=0.1175
r23 1 8 1e-05 $l=2e-09 $X=1.421 $Y=0.2525 $X2=1.423 $Y2=0.2525
r24 2 7 1e-05 $l=2e-09 $X=1.529 $Y=0.1175 $X2=1.531 $Y2=0.1175
.ends

.subckt PM_MUX_1S_3B%XI0/NET1 VSS 32 64 70 73 13 18 15 16 6 19 23 25 5 1 14 17
+ 22 2 24 26 20 12 11 27 21
c1 1 VSS 0.000917337f $X=1.448 $Y=0.185
c2 2 VSS 0.000916097f $X=1.61 $Y=0.185
c3 5 VSS 0.00928066f $X=1.313 $Y=0.1175
c4 6 VSS 0.00952091f $X=1.313 $Y=0.2525
c5 11 VSS 0.0174637f $X=1.448 $Y=0.185
c6 12 VSS 0.0163448f $X=1.61 $Y=0.0745
c7 13 VSS 0.0429518f $X=1.2985 $Y=0.1175
c8 14 VSS 0.0430343f $X=1.2985 $Y=0.2525
c9 15 VSS 0.00354316f $X=1.3015 $Y=0.1
c10 16 VSS 0.0041f $X=1.3015 $Y=0.275
c11 17 VSS 0.000131362f $X=1.448 $Y=0.1735
c12 18 VSS 0.000149816f $X=1.61 $Y=0.1735
c13 19 VSS 0.000275566f $X=1.313 $Y=0.146
c14 20 VSS 0.000328382f $X=1.313 $Y=0.185
c15 21 VSS 0.000505881f $X=1.61 $Y=0.146
c16 22 VSS 0.00353734f $X=1.313 $Y=0.128
c17 23 VSS 0.000542145f $X=1.313 $Y=0.1655
c18 24 VSS 0.00453913f $X=1.313 $Y=0.212
c19 25 VSS 0.00366174f $X=1.569 $Y=0.146
c20 26 VSS 0.00111526f $X=1.3645 $Y=0.185
c21 27 VSS 0.000911309f $X=1.61 $Y=0.185
r1 73 72 16.4967 $w=2e-08 $l=4.85e-08 $layer=<ENCRYPTED_LAYER_23>
+ $thickness=5.6e-08 $X=1.448 $Y=0.2525 $X2=1.448 $Y2=0.204
r2 11 72 6.6497 $w=2e-08 $l=1.9e-08 $layer=<ENCRYPTED_LAYER_23>
+ $thickness=5.6e-08 $X=1.448 $Y=0.185 $X2=1.448 $Y2=0.204
r3 14 6 0.154321 $w=8.1e-08 $l=1.25e-08 $layer=<ENCRYPTED_LAYER_49>
+ $thickness=1e-09 $X=1.2985 $Y=0.2525 $X2=1.313 $Y2=0.2525
r4 70 14 0.0308642 $w=8.1e-08 $l=2.5e-09 $layer=<ENCRYPTED_LAYER_49>
+ $thickness=1e-09 $X=1.2956 $Y=0.2525 $X2=1.2985 $Y2=0.2525
r5 1 67 19.3796 $w=1.8e-08 $l=1.8e-08 $layer=<ENCRYPTED_LAYER_4> $X=1.448
+ $Y=0.185 $X2=1.448 $Y2=0.185
r6 1 11 10.4265 $w=2.1e-08 $layer=LIG $thickness=5.2e-08 $X=1.448 $Y=0.185
+ $X2=1.448 $Y2=0.185
r7 6 65 19.3796 $w=1.8e-08 $l=1.8e-08 $layer=<ENCRYPTED_LAYER_7> $X=1.313
+ $Y=0.2525 $X2=1.313 $Y2=0.275
r8 17 67 2.68168 $w=1.8e-08 $l=1.15e-08 $layer=M1 $thickness=3.6e-08 $X=1.448
+ $Y=0.1735 $X2=1.448 $Y2=0.185
r9 16 65 2.68168 $w=1.8e-08 $l=1.15e-08 $layer=M1 $thickness=3.6e-08 $X=1.3015
+ $Y=0.275 $X2=1.313 $Y2=0.275
r10 13 5 0.154321 $w=8.1e-08 $l=1.25e-08 $layer=<ENCRYPTED_LAYER_48>
+ $thickness=1e-09 $X=1.2985 $Y=0.1175 $X2=1.313 $Y2=0.1175
r11 64 13 0.0308642 $w=8.1e-08 $l=2.5e-09 $layer=<ENCRYPTED_LAYER_48>
+ $thickness=1e-09 $X=1.2956 $Y=0.1175 $X2=1.2985 $Y2=0.1175
r12 60 67 19.5347 $w=1.8e-08 $l=1.8e-08 $layer=V1 $X=1.448 $Y=0.185 $X2=1.448
+ $Y2=0.185
r13 59 60 2.56509 $w=1.8e-08 $l=1.1e-08 $layer=M2 $thickness=3.6e-08 $X=1.437
+ $Y=0.185 $X2=1.448 $Y2=0.185
r14 58 59 3.73104 $w=1.8e-08 $l=1.6e-08 $layer=M2 $thickness=3.6e-08 $X=1.421
+ $Y=0.185 $X2=1.437 $Y2=0.185
r15 26 58 13.1752 $w=1.8e-08 $l=5.65e-08 $layer=M2 $thickness=3.6e-08 $X=1.3645
+ $Y=0.185 $X2=1.421 $Y2=0.185
r16 56 65 19.5347 $w=1.8e-08 $l=1.8e-08 $layer=V1 $X=1.313 $Y=0.2775 $X2=1.313
+ $Y2=0.275
r17 55 56 2.09871 $w=1.8e-08 $l=9e-09 $layer=M2 $thickness=3.6e-08 $X=1.313
+ $Y=0.2685 $X2=1.313 $Y2=0.2775
r18 54 55 2.09871 $w=1.8e-08 $l=9e-09 $layer=M2 $thickness=3.6e-08 $X=1.313
+ $Y=0.2595 $X2=1.313 $Y2=0.2685
r19 53 54 2.09871 $w=1.8e-08 $l=9e-09 $layer=M2 $thickness=3.6e-08 $X=1.313
+ $Y=0.2505 $X2=1.313 $Y2=0.2595
r20 52 53 2.68168 $w=1.8e-08 $l=1.15e-08 $layer=M2 $thickness=3.6e-08 $X=1.313
+ $Y=0.239 $X2=1.313 $Y2=0.2505
r21 24 52 6.29612 $w=1.8e-08 $l=2.7e-08 $layer=M2 $thickness=3.6e-08 $X=1.313
+ $Y=0.212 $X2=1.313 $Y2=0.239
r22 5 50 19.3796 $w=1.8e-08 $l=1.8e-08 $layer=<ENCRYPTED_LAYER_7> $X=1.313
+ $Y=0.1175 $X2=1.313 $Y2=0.1
r23 20 23 3.36689 $w=1.8e-08 $l=1.95e-08 $layer=M2 $thickness=3.6e-08 $X=1.313
+ $Y=0.185 $X2=1.313 $Y2=0.1655
r24 20 24 5.11582 $w=1.8e-08 $l=2.7e-08 $layer=M2 $thickness=3.6e-08 $X=1.313
+ $Y=0.185 $X2=1.313 $Y2=0.212
r25 20 26 10.829 $w=1.8e-08 $l=5.15e-08 $layer=M2 $thickness=3.6e-08 $X=1.313
+ $Y=0.185 $X2=1.3645 $Y2=0.185
r26 15 50 2.68168 $w=1.8e-08 $l=1.15e-08 $layer=M1 $thickness=3.6e-08 $X=1.3015
+ $Y=0.1 $X2=1.313 $Y2=0.1
r27 49 50 19.5347 $w=1.8e-08 $l=1.8e-08 $layer=V1 $X=1.313 $Y=0.096 $X2=1.313
+ $Y2=0.1
r28 46 47 2.09871 $w=1.8e-08 $l=9e-09 $layer=M2 $thickness=3.6e-08 $X=1.313
+ $Y=0.105 $X2=1.313 $Y2=0.114
r29 46 49 2.09871 $w=1.8e-08 $l=9e-09 $layer=M2 $thickness=3.6e-08 $X=1.313
+ $Y=0.105 $X2=1.313 $Y2=0.096
r30 22 47 3.26466 $w=1.8e-08 $l=1.4e-08 $layer=M2 $thickness=3.6e-08 $X=1.313
+ $Y=0.128 $X2=1.313 $Y2=0.114
r31 19 45 17.2417 $w=1.8e-08 $l=7.9e-08 $layer=M2 $thickness=3.6e-08 $X=1.313
+ $Y=0.146 $X2=1.392 $Y2=0.146
r32 19 22 3.01711 $w=1.8e-08 $l=1.8e-08 $layer=M2 $thickness=3.6e-08 $X=1.313
+ $Y=0.146 $X2=1.313 $Y2=0.128
r33 19 23 3.36689 $w=1.8e-08 $l=1.95e-08 $layer=M2 $thickness=3.6e-08 $X=1.313
+ $Y=0.146 $X2=1.313 $Y2=0.1655
r34 44 45 18.3054 $w=1.8e-08 $l=7.85e-08 $layer=M2 $thickness=3.6e-08 $X=1.4705
+ $Y=0.146 $X2=1.392 $Y2=0.146
r35 43 44 6.64591 $w=1.8e-08 $l=2.85e-08 $layer=M2 $thickness=3.6e-08 $X=1.499
+ $Y=0.146 $X2=1.4705 $Y2=0.146
r36 42 43 6.7625 $w=1.8e-08 $l=2.9e-08 $layer=M2 $thickness=3.6e-08 $X=1.528
+ $Y=0.146 $X2=1.499 $Y2=0.146
r37 25 42 9.56078 $w=1.8e-08 $l=4.1e-08 $layer=M2 $thickness=3.6e-08 $X=1.569
+ $Y=0.146 $X2=1.528 $Y2=0.146
r38 21 40 2.89809 $w=1.8e-08 $l=1.95e-08 $layer=M2 $thickness=3.6e-08 $X=1.61
+ $Y=0.146 $X2=1.61 $Y2=0.1655
r39 21 25 7.91167 $w=1.8e-08 $l=4.1e-08 $layer=M2 $thickness=3.6e-08 $X=1.61
+ $Y=0.146 $X2=1.569 $Y2=0.146
r40 27 38 19.5347 $w=1.8e-08 $l=1.8e-08 $layer=V1 $X=1.61 $Y=0.185 $X2=1.61
+ $Y2=0.185
r41 27 40 4.5472 $w=1.8e-08 $l=1.95e-08 $layer=M2 $thickness=3.6e-08 $X=1.61
+ $Y=0.185 $X2=1.61 $Y2=0.1655
r42 18 38 2.68168 $w=1.8e-08 $l=1.15e-08 $layer=M1 $thickness=3.6e-08 $X=1.61
+ $Y=0.1735 $X2=1.61 $Y2=0.185
r43 2 35 10.4265 $w=2.1e-08 $layer=LIG $thickness=5.2e-08 $X=1.61 $Y=0.185
+ $X2=1.61 $Y2=0.185
r44 2 38 19.3796 $w=1.8e-08 $l=1.8e-08 $layer=<ENCRYPTED_LAYER_4> $X=1.61
+ $Y=0.185 $X2=1.61 $Y2=0.185
r45 34 35 5.79936 $w=2e-08 $l=1.65e-08 $layer=<ENCRYPTED_LAYER_23>
+ $thickness=5.6e-08 $X=1.61 $Y=0.1685 $X2=1.61 $Y2=0.185
r46 33 34 2.7211 $w=2e-08 $l=8e-09 $layer=<ENCRYPTED_LAYER_23>
+ $thickness=5.6e-08 $X=1.61 $Y=0.1605 $X2=1.61 $Y2=0.1685
r47 32 33 14.6259 $w=2e-08 $l=4.3e-08 $layer=<ENCRYPTED_LAYER_23>
+ $thickness=5.6e-08 $X=1.61 $Y=0.1175 $X2=1.61 $Y2=0.1605
r48 32 12 14.6259 $w=2e-08 $l=4.3e-08 $layer=<ENCRYPTED_LAYER_23>
+ $thickness=5.6e-08 $X=1.61 $Y=0.1175 $X2=1.61 $Y2=0.0745
.ends

.subckt PM_MUX_1S_3B%S VSS 34 40 43 77 96 109 113 160 164 192 196 214 225 230
+ 236 29 57 30 49 54 33 32 50 21 2 28 52 55 56 3 31 53 1 51 19 20 42 44 35 36
+ 41 37 66 58 68 67 63 39 59 24 5 61 65 64 6 38 62 4 60 22 23 74 47 45 69 73 8
+ 25 48 71 7 46 70 9 72 27 26
c1 1 VSS 0.0022409f $X=0.368 $Y=0.185
c2 2 VSS 0.00226195f $X=0.422 $Y=0.185
c3 3 VSS 0.0068729f $X=0.638 $Y=0.185
c4 4 VSS 0.00223041f $X=0.854 $Y=0.185
c5 5 VSS 0.00225972f $X=0.908 $Y=0.185
c6 6 VSS 0.00685789f $X=1.124 $Y=0.185
c7 7 VSS 0.00695505f $X=1.286 $Y=0.185
c8 8 VSS 0.00226195f $X=1.502 $Y=0.185
c9 9 VSS 0.0022409f $X=1.556 $Y=0.185
c10 19 VSS 0.00638486f $X=0.368 $Y=0.185
c11 20 VSS 0.00648571f $X=0.422 $Y=0.123
c12 21 VSS 0.0868078f $X=0.638 $Y=0.185
c13 22 VSS 0.00638658f $X=0.854 $Y=0.185
c14 23 VSS 0.00649246f $X=0.908 $Y=0.185
c15 24 VSS 0.0868604f $X=1.124 $Y=0.185
c16 25 VSS 0.0867926f $X=1.286 $Y=0.185
c17 26 VSS 0.00648571f $X=1.502 $Y=0.185
c18 27 VSS 0.00637181f $X=1.556 $Y=0.185
c19 28 VSS 0.00115698f $X=0.368 $Y=0.1285
c20 29 VSS 0.0012946f $X=0.416 $Y=0.137
c21 30 VSS 0.00207917f $X=0.53 $Y=0.137
c22 31 VSS 0.0012476f $X=0.53 $Y=0.185
c23 32 VSS 0.00710516f $X=0.692 $Y=0.086
c24 33 VSS 0.00656654f $X=0.692 $Y=0.284
c25 34 VSS 0.00136231f $X=0.69 $Y=0.185
c26 35 VSS 0.00116683f $X=0.854 $Y=0.1285
c27 36 VSS 0.00129462f $X=0.911 $Y=0.137
c28 37 VSS 0.00207773f $X=1.016 $Y=0.137
c29 38 VSS 0.00121232f $X=1.016 $Y=0.185
c30 39 VSS 0.00726942f $X=1.178 $Y=0.086
c31 40 VSS 0.00126331f $X=1.176 $Y=0.185
c32 41 VSS 0.0042173f $X=1.178 $Y=0.284
c33 42 VSS 0.00734367f $X=1.232 $Y=0.086
c34 43 VSS 0.00126623f $X=1.234 $Y=0.185
c35 44 VSS 0.00716818f $X=1.232 $Y=0.284
c36 45 VSS 0.00208105f $X=1.394 $Y=0.137
c37 46 VSS 0.00124667f $X=1.394 $Y=0.185
c38 47 VSS 0.0012946f $X=1.499 $Y=0.137
c39 48 VSS 0.00115698f $X=1.556 $Y=0.1285
c40 49 VSS 0.00112909f $X=0.368 $Y=0.1465
c41 50 VSS 0.00118391f $X=0.4085 $Y=0.137
c42 51 VSS 0.00114138f $X=0.422 $Y=0.1735
c43 52 VSS 0.00338366f $X=0.433 $Y=0.137
c44 53 VSS 0.00150101f $X=0.53 $Y=0.1585
c45 54 VSS 0.00305016f $X=0.568 $Y=0.185
c46 55 VSS 0.00382351f $X=0.692 $Y=0.1615
c47 56 VSS 0.00371654f $X=0.692 $Y=0.1965
c48 57 VSS 0.0428374f $X=0.7175 $Y=0.284
c49 58 VSS 0.00112853f $X=0.854 $Y=0.1465
c50 59 VSS 0.00118545f $X=0.8945 $Y=0.137
c51 60 VSS 0.00114255f $X=0.908 $Y=0.1585
c52 61 VSS 0.00339446f $X=1.0025 $Y=0.137
c53 62 VSS 0.0015038f $X=1.016 $Y=0.1735
c54 63 VSS 0.00305132f $X=1.159 $Y=0.185
c55 64 VSS 0.00418519f $X=1.178 $Y=0.152
c56 65 VSS 0.00404282f $X=1.178 $Y=0.2615
c57 66 VSS 0.00178834f $X=1.205 $Y=0.185
c58 67 VSS 0.00422376f $X=1.232 $Y=0.152
c59 68 VSS 0.00428943f $X=1.232 $Y=0.1965
c60 69 VSS 0.00339482f $X=1.2505 $Y=0.185
c61 70 VSS 0.00150101f $X=1.394 $Y=0.1735
c62 71 VSS 0.00338366f $X=1.405 $Y=0.137
c63 72 VSS 0.00114138f $X=1.502 $Y=0.1585
c64 73 VSS 0.00118391f $X=1.5155 $Y=0.137
c65 74 VSS 0.00112909f $X=1.556 $Y=0.1465
r1 236 237 16.4967 $w=2e-08 $l=4.85e-08 $layer=<ENCRYPTED_LAYER_23>
+ $thickness=5.6e-08 $X=1.556 $Y=0.1175 $X2=1.556 $Y2=0.166
r2 27 237 6.6497 $w=2e-08 $l=1.9e-08 $layer=<ENCRYPTED_LAYER_23>
+ $thickness=5.6e-08 $X=1.556 $Y=0.185 $X2=1.556 $Y2=0.166
r3 9 234 19.3796 $w=1.8e-08 $l=1.8e-08 $layer=<ENCRYPTED_LAYER_4> $X=1.556
+ $Y=0.185 $X2=1.556 $Y2=0.185
r4 9 27 10.4265 $w=2.1e-08 $layer=LIG $thickness=5.2e-08 $X=1.556 $Y=0.185
+ $X2=1.556 $Y2=0.185
r5 233 234 2.68168 $w=1.8e-08 $l=1.15e-08 $layer=M1 $thickness=3.6e-08 $X=1.556
+ $Y=0.1735 $X2=1.556 $Y2=0.185
r6 232 233 3.38125 $w=1.8e-08 $l=1.45e-08 $layer=M1 $thickness=3.6e-08 $X=1.556
+ $Y=0.159 $X2=1.556 $Y2=0.1735
r7 74 223 0.983973 $w=1.8e-08 $l=9e-09 $layer=M1 $thickness=3.6e-08 $X=1.556
+ $Y=0.1465 $X2=1.556 $Y2=0.1375
r8 74 232 2.91487 $w=1.8e-08 $l=1.25e-08 $layer=M1 $thickness=3.6e-08 $X=1.556
+ $Y=0.1465 $X2=1.556 $Y2=0.159
r9 230 229 16.4967 $w=2e-08 $l=4.85e-08 $layer=<ENCRYPTED_LAYER_23>
+ $thickness=5.6e-08 $X=1.502 $Y=0.2525 $X2=1.502 $Y2=0.204
r10 26 229 6.6497 $w=2e-08 $l=1.9e-08 $layer=<ENCRYPTED_LAYER_23>
+ $thickness=5.6e-08 $X=1.502 $Y=0.185 $X2=1.502 $Y2=0.204
r11 225 226 16.4967 $w=2e-08 $l=4.85e-08 $layer=<ENCRYPTED_LAYER_23>
+ $thickness=5.6e-08 $X=0.854 $Y=0.1175 $X2=0.854 $Y2=0.166
r12 22 226 6.6497 $w=2e-08 $l=1.9e-08 $layer=<ENCRYPTED_LAYER_23>
+ $thickness=5.6e-08 $X=0.854 $Y=0.185 $X2=0.854 $Y2=0.166
r13 48 222 0.633997 $w=1.8e-08 $l=1.43003e-08 $layer=M1 $thickness=3.6e-08
+ $X=1.556 $Y=0.1285 $X2=1.5445 $Y2=0.137
r14 48 223 0.9184 $w=1.8e-08 $l=9e-09 $layer=M1 $thickness=3.6e-08 $X=1.556
+ $Y=0.1285 $X2=1.556 $Y2=0.1375
r15 8 220 19.3796 $w=1.8e-08 $l=1.8e-08 $layer=<ENCRYPTED_LAYER_4> $X=1.502
+ $Y=0.185 $X2=1.502 $Y2=0.185
r16 8 26 10.4265 $w=2.1e-08 $layer=LIG $thickness=5.2e-08 $X=1.502 $Y=0.185
+ $X2=1.502 $Y2=0.185
r17 4 218 19.3796 $w=1.8e-08 $l=1.8e-08 $layer=<ENCRYPTED_LAYER_4> $X=0.854
+ $Y=0.185 $X2=0.854 $Y2=0.185
r18 4 22 10.4265 $w=2.1e-08 $layer=LIG $thickness=5.2e-08 $X=0.854 $Y=0.185
+ $X2=0.854 $Y2=0.185
r19 221 222 3.14806 $w=1.8e-08 $l=1.35e-08 $layer=M1 $thickness=3.6e-08
+ $X=1.531 $Y=0.137 $X2=1.5445 $Y2=0.137
r20 73 211 1.35549 $w=1.8e-08 $l=7.5e-09 $layer=M1 $thickness=3.6e-08 $X=1.5155
+ $Y=0.137 $X2=1.508 $Y2=0.137
r21 73 221 3.61444 $w=1.8e-08 $l=1.55e-08 $layer=M1 $thickness=3.6e-08
+ $X=1.5155 $Y=0.137 $X2=1.531 $Y2=0.137
r22 219 220 2.68168 $w=1.8e-08 $l=1.15e-08 $layer=M1 $thickness=3.6e-08
+ $X=1.502 $Y=0.1735 $X2=1.502 $Y2=0.185
r23 72 219 3.49785 $w=1.8e-08 $l=1.5e-08 $layer=M1 $thickness=3.6e-08 $X=1.502
+ $Y=0.1585 $X2=1.502 $Y2=0.1735
r24 217 218 2.68168 $w=1.8e-08 $l=1.15e-08 $layer=M1 $thickness=3.6e-08
+ $X=0.854 $Y=0.1735 $X2=0.854 $Y2=0.185
r25 216 217 3.38125 $w=1.8e-08 $l=1.45e-08 $layer=M1 $thickness=3.6e-08
+ $X=0.854 $Y=0.159 $X2=0.854 $Y2=0.1735
r26 58 210 0.983973 $w=1.8e-08 $l=9e-09 $layer=M1 $thickness=3.6e-08 $X=0.854
+ $Y=0.1465 $X2=0.854 $Y2=0.1375
r27 58 216 2.91487 $w=1.8e-08 $l=1.25e-08 $layer=M1 $thickness=3.6e-08 $X=0.854
+ $Y=0.1465 $X2=0.854 $Y2=0.159
r28 214 213 16.4967 $w=2e-08 $l=4.85e-08 $layer=<ENCRYPTED_LAYER_23>
+ $thickness=5.6e-08 $X=0.908 $Y=0.2525 $X2=0.908 $Y2=0.204
r29 23 213 6.6497 $w=2e-08 $l=1.9e-08 $layer=<ENCRYPTED_LAYER_23>
+ $thickness=5.6e-08 $X=0.908 $Y=0.185 $X2=0.908 $Y2=0.204
r30 47 209 1.07865 $w=1.8e-08 $l=8e-09 $layer=M1 $thickness=3.6e-08 $X=1.499
+ $Y=0.137 $X2=1.491 $Y2=0.137
r31 47 211 0.9184 $w=1.8e-08 $l=9e-09 $layer=M1 $thickness=3.6e-08 $X=1.499
+ $Y=0.137 $X2=1.508 $Y2=0.137
r32 47 72 3.52714 $w=1.8e-08 $l=2.17083e-08 $layer=M1 $thickness=3.6e-08
+ $X=1.499 $Y=0.137 $X2=1.502 $Y2=0.1585
r33 35 203 0.633997 $w=1.8e-08 $l=1.43003e-08 $layer=M1 $thickness=3.6e-08
+ $X=0.854 $Y=0.1285 $X2=0.8655 $Y2=0.137
r34 35 210 0.9184 $w=1.8e-08 $l=9e-09 $layer=M1 $thickness=3.6e-08 $X=0.854
+ $Y=0.1285 $X2=0.854 $Y2=0.1375
r35 5 201 19.3796 $w=1.8e-08 $l=1.8e-08 $layer=<ENCRYPTED_LAYER_4> $X=0.908
+ $Y=0.185 $X2=0.908 $Y2=0.185
r36 5 23 10.4265 $w=2.1e-08 $layer=LIG $thickness=5.2e-08 $X=0.908 $Y=0.185
+ $X2=0.908 $Y2=0.185
r37 208 209 3.73104 $w=1.8e-08 $l=1.6e-08 $layer=M1 $thickness=3.6e-08 $X=1.475
+ $Y=0.137 $X2=1.491 $Y2=0.137
r38 207 208 3.73104 $w=1.8e-08 $l=1.6e-08 $layer=M1 $thickness=3.6e-08 $X=1.459
+ $Y=0.137 $X2=1.475 $Y2=0.137
r39 206 207 2.56509 $w=1.8e-08 $l=1.1e-08 $layer=M1 $thickness=3.6e-08 $X=1.448
+ $Y=0.137 $X2=1.459 $Y2=0.137
r40 205 206 2.56509 $w=1.8e-08 $l=1.1e-08 $layer=M1 $thickness=3.6e-08 $X=1.437
+ $Y=0.137 $X2=1.448 $Y2=0.137
r41 204 205 3.73104 $w=1.8e-08 $l=1.6e-08 $layer=M1 $thickness=3.6e-08 $X=1.421
+ $Y=0.137 $X2=1.437 $Y2=0.137
r42 71 204 3.73104 $w=1.8e-08 $l=1.6e-08 $layer=M1 $thickness=3.6e-08 $X=1.405
+ $Y=0.137 $X2=1.421 $Y2=0.137
r43 202 203 3.14806 $w=1.8e-08 $l=1.35e-08 $layer=M1 $thickness=3.6e-08
+ $X=0.879 $Y=0.137 $X2=0.8655 $Y2=0.137
r44 59 199 1.35549 $w=1.8e-08 $l=7.5e-09 $layer=M1 $thickness=3.6e-08 $X=0.8945
+ $Y=0.137 $X2=0.902 $Y2=0.137
r45 59 202 3.61444 $w=1.8e-08 $l=1.55e-08 $layer=M1 $thickness=3.6e-08
+ $X=0.8945 $Y=0.137 $X2=0.879 $Y2=0.137
r46 200 201 2.68168 $w=1.8e-08 $l=1.15e-08 $layer=M1 $thickness=3.6e-08
+ $X=0.908 $Y=0.1735 $X2=0.908 $Y2=0.185
r47 60 200 3.49785 $w=1.8e-08 $l=1.5e-08 $layer=M1 $thickness=3.6e-08 $X=0.908
+ $Y=0.1585 $X2=0.908 $Y2=0.1735
r48 45 198 3.36447 $w=1.8e-08 $l=2.15e-08 $layer=M1 $thickness=3.6e-08 $X=1.394
+ $Y=0.137 $X2=1.394 $Y2=0.1585
r49 45 71 0.915974 $w=1.8e-08 $l=1.1e-08 $layer=M1 $thickness=3.6e-08 $X=1.394
+ $Y=0.137 $X2=1.405 $Y2=0.137
r50 36 189 1.07865 $w=1.8e-08 $l=8e-09 $layer=M1 $thickness=3.6e-08 $X=0.911
+ $Y=0.137 $X2=0.919 $Y2=0.137
r51 36 199 0.9184 $w=1.8e-08 $l=9e-09 $layer=M1 $thickness=3.6e-08 $X=0.911
+ $Y=0.137 $X2=0.902 $Y2=0.137
r52 36 60 3.52714 $w=1.8e-08 $l=2.17083e-08 $layer=M1 $thickness=3.6e-08
+ $X=0.911 $Y=0.137 $X2=0.908 $Y2=0.1585
r53 70 198 3.49785 $w=1.8e-08 $l=1.5e-08 $layer=M1 $thickness=3.6e-08 $X=1.394
+ $Y=0.1735 $X2=1.394 $Y2=0.1585
r54 196 195 14.6259 $w=2e-08 $l=4.3e-08 $layer=<ENCRYPTED_LAYER_23>
+ $thickness=5.6e-08 $X=1.286 $Y=0.2525 $X2=1.286 $Y2=0.2095
r55 194 195 2.72111 $w=2e-08 $l=8e-09 $layer=<ENCRYPTED_LAYER_23>
+ $thickness=5.6e-08 $X=1.286 $Y=0.2015 $X2=1.286 $Y2=0.2095
r56 192 193 14.6259 $w=2e-08 $l=4.3e-08 $layer=<ENCRYPTED_LAYER_23>
+ $thickness=5.6e-08 $X=1.286 $Y=0.1175 $X2=1.286 $Y2=0.1605
r57 190 193 2.72111 $w=2e-08 $l=8e-09 $layer=<ENCRYPTED_LAYER_23>
+ $thickness=5.6e-08 $X=1.286 $Y=0.1685 $X2=1.286 $Y2=0.1605
r58 25 190 5.79936 $w=2e-08 $l=1.65e-08 $layer=<ENCRYPTED_LAYER_23>
+ $thickness=5.6e-08 $X=1.286 $Y=0.185 $X2=1.286 $Y2=0.1685
r59 25 194 5.79936 $w=2e-08 $l=1.65e-08 $layer=<ENCRYPTED_LAYER_23>
+ $thickness=5.6e-08 $X=1.286 $Y=0.185 $X2=1.286 $Y2=0.2015
r60 188 189 3.73104 $w=1.8e-08 $l=1.6e-08 $layer=M1 $thickness=3.6e-08 $X=0.935
+ $Y=0.137 $X2=0.919 $Y2=0.137
r61 187 188 3.73104 $w=1.8e-08 $l=1.6e-08 $layer=M1 $thickness=3.6e-08 $X=0.951
+ $Y=0.137 $X2=0.935 $Y2=0.137
r62 186 187 2.56509 $w=1.8e-08 $l=1.1e-08 $layer=M1 $thickness=3.6e-08 $X=0.962
+ $Y=0.137 $X2=0.951 $Y2=0.137
r63 185 186 3.14806 $w=1.8e-08 $l=1.35e-08 $layer=M1 $thickness=3.6e-08
+ $X=0.9755 $Y=0.137 $X2=0.962 $Y2=0.137
r64 184 185 3.14806 $w=1.8e-08 $l=1.35e-08 $layer=M1 $thickness=3.6e-08
+ $X=0.989 $Y=0.137 $X2=0.9755 $Y2=0.137
r65 61 184 3.14806 $w=1.8e-08 $l=1.35e-08 $layer=M1 $thickness=3.6e-08
+ $X=1.0025 $Y=0.137 $X2=0.989 $Y2=0.137
r66 46 179 7.2121 $w=1.8e-08 $l=3.8e-08 $layer=M1 $thickness=3.6e-08 $X=1.394
+ $Y=0.185 $X2=1.356 $Y2=0.185
r67 46 70 1.03257 $w=1.8e-08 $l=1.15e-08 $layer=M1 $thickness=3.6e-08 $X=1.394
+ $Y=0.185 $X2=1.394 $Y2=0.1735
r68 7 176 19.3796 $w=1.8e-08 $l=1.8e-08 $layer=<ENCRYPTED_LAYER_4> $X=1.286
+ $Y=0.185 $X2=1.286 $Y2=0.185
r69 7 25 6.54019 $w=2.09524e-08 $layer=<ENCRYPTED_LAYER_23>
+ $thickness=5.21905e-08 $X=1.286 $Y=0.185 $X2=1.286 $Y2=0.185
r70 44 173 1.96775 $w=1.8e-08 $l=1.35e-08 $layer=M1 $thickness=3.6e-08 $X=1.232
+ $Y=0.284 $X2=1.232 $Y2=0.2705
r71 42 168 2.55073 $w=1.8e-08 $l=1.6e-08 $layer=M1 $thickness=3.6e-08 $X=1.232
+ $Y=0.086 $X2=1.232 $Y2=0.102
r72 37 166 3.36447 $w=1.8e-08 $l=2.15e-08 $layer=M1 $thickness=3.6e-08 $X=1.016
+ $Y=0.137 $X2=1.016 $Y2=0.1585
r73 37 61 1.49895 $w=1.8e-08 $l=1.35e-08 $layer=M1 $thickness=3.6e-08 $X=1.016
+ $Y=0.137 $X2=1.0025 $Y2=0.137
r74 178 179 10.0272 $w=1.8e-08 $l=4.3e-08 $layer=M1 $thickness=3.6e-08 $X=1.313
+ $Y=0.185 $X2=1.356 $Y2=0.185
r75 177 178 3.73104 $w=1.8e-08 $l=1.6e-08 $layer=M1 $thickness=3.6e-08 $X=1.297
+ $Y=0.185 $X2=1.313 $Y2=0.185
r76 176 177 2.56509 $w=1.8e-08 $l=1.1e-08 $layer=M1 $thickness=3.6e-08 $X=1.286
+ $Y=0.185 $X2=1.297 $Y2=0.185
r77 175 176 3.96423 $w=1.8e-08 $l=1.7e-08 $layer=M1 $thickness=3.6e-08 $X=1.269
+ $Y=0.185 $X2=1.286 $Y2=0.185
r78 174 175 1.98211 $w=1.8e-08 $l=8.5e-09 $layer=M1 $thickness=3.6e-08
+ $X=1.2605 $Y=0.185 $X2=1.269 $Y2=0.185
r79 69 174 2.3319 $w=1.8e-08 $l=1e-08 $layer=M1 $thickness=3.6e-08 $X=1.2505
+ $Y=0.185 $X2=1.2605 $Y2=0.185
r80 172 173 2.56509 $w=1.8e-08 $l=1.1e-08 $layer=M1 $thickness=3.6e-08 $X=1.232
+ $Y=0.2595 $X2=1.232 $Y2=0.2705
r81 171 172 2.09871 $w=1.8e-08 $l=9e-09 $layer=M1 $thickness=3.6e-08 $X=1.232
+ $Y=0.2505 $X2=1.232 $Y2=0.2595
r82 170 171 2.68168 $w=1.8e-08 $l=1.15e-08 $layer=M1 $thickness=3.6e-08
+ $X=1.232 $Y=0.239 $X2=1.232 $Y2=0.2505
r83 169 170 5.71315 $w=1.8e-08 $l=2.45e-08 $layer=M1 $thickness=3.6e-08
+ $X=1.232 $Y=0.2145 $X2=1.232 $Y2=0.239
r84 68 169 4.19742 $w=1.8e-08 $l=1.8e-08 $layer=M1 $thickness=3.6e-08 $X=1.232
+ $Y=0.1965 $X2=1.232 $Y2=0.2145
r85 167 168 3.84763 $w=1.8e-08 $l=1.65e-08 $layer=M1 $thickness=3.6e-08
+ $X=1.232 $Y=0.1185 $X2=1.232 $Y2=0.102
r86 67 167 7.81186 $w=1.8e-08 $l=3.35e-08 $layer=M1 $thickness=3.6e-08 $X=1.232
+ $Y=0.152 $X2=1.232 $Y2=0.1185
r87 62 166 3.49785 $w=1.8e-08 $l=1.5e-08 $layer=M1 $thickness=3.6e-08 $X=1.016
+ $Y=0.1735 $X2=1.016 $Y2=0.1585
r88 164 163 14.6259 $w=2e-08 $l=4.3e-08 $layer=<ENCRYPTED_LAYER_23>
+ $thickness=5.6e-08 $X=1.124 $Y=0.2525 $X2=1.124 $Y2=0.2095
r89 162 163 2.72111 $w=2e-08 $l=8e-09 $layer=<ENCRYPTED_LAYER_23>
+ $thickness=5.6e-08 $X=1.124 $Y=0.2015 $X2=1.124 $Y2=0.2095
r90 160 161 14.6259 $w=2e-08 $l=4.3e-08 $layer=<ENCRYPTED_LAYER_23>
+ $thickness=5.6e-08 $X=1.124 $Y=0.1175 $X2=1.124 $Y2=0.1605
r91 158 161 2.72111 $w=2e-08 $l=8e-09 $layer=<ENCRYPTED_LAYER_23>
+ $thickness=5.6e-08 $X=1.124 $Y=0.1685 $X2=1.124 $Y2=0.1605
r92 24 158 5.79936 $w=2e-08 $l=1.65e-08 $layer=<ENCRYPTED_LAYER_23>
+ $thickness=5.6e-08 $X=1.124 $Y=0.185 $X2=1.124 $Y2=0.1685
r93 24 162 5.79936 $w=2e-08 $l=1.65e-08 $layer=<ENCRYPTED_LAYER_23>
+ $thickness=5.6e-08 $X=1.124 $Y=0.185 $X2=1.124 $Y2=0.2015
r94 43 66 5.11582 $w=1.8e-08 $l=2.7e-08 $layer=M1 $thickness=3.6e-08 $X=1.234
+ $Y=0.185 $X2=1.205 $Y2=0.185
r95 43 67 6.51495 $w=1.8e-08 $l=3.3e-08 $layer=M1 $thickness=3.6e-08 $X=1.234
+ $Y=0.185 $X2=1.232 $Y2=0.152
r96 43 68 1.50137 $w=1.8e-08 $l=1.15e-08 $layer=M1 $thickness=3.6e-08 $X=1.234
+ $Y=0.185 $X2=1.232 $Y2=0.1965
r97 43 69 3.1337 $w=1.8e-08 $l=1.85e-08 $layer=M1 $thickness=3.6e-08 $X=1.234
+ $Y=0.185 $X2=1.2505 $Y2=0.185
r98 39 154 2.55073 $w=1.8e-08 $l=1.6e-08 $layer=M1 $thickness=3.6e-08 $X=1.178
+ $Y=0.086 $X2=1.178 $Y2=0.102
r99 38 152 7.2121 $w=1.8e-08 $l=3.8e-08 $layer=M1 $thickness=3.6e-08 $X=1.016
+ $Y=0.185 $X2=1.054 $Y2=0.185
r100 38 62 1.03257 $w=1.8e-08 $l=1.15e-08 $layer=M1 $thickness=3.6e-08 $X=1.016
+ $Y=0.185 $X2=1.016 $Y2=0.1735
r101 6 149 19.3796 $w=1.8e-08 $l=1.8e-08 $layer=<ENCRYPTED_LAYER_4> $X=1.124
+ $Y=0.185 $X2=1.124 $Y2=0.185
r102 6 24 6.54019 $w=2.09524e-08 $layer=<ENCRYPTED_LAYER_23>
+ $thickness=5.21905e-08 $X=1.124 $Y=0.185 $X2=1.124 $Y2=0.185
r103 153 154 3.84763 $w=1.8e-08 $l=1.65e-08 $layer=M1 $thickness=3.6e-08
+ $X=1.178 $Y=0.1185 $X2=1.178 $Y2=0.102
r104 64 153 7.81186 $w=1.8e-08 $l=3.35e-08 $layer=M1 $thickness=3.6e-08
+ $X=1.178 $Y=0.152 $X2=1.178 $Y2=0.1185
r105 151 152 10.0272 $w=1.8e-08 $l=4.3e-08 $layer=M1 $thickness=3.6e-08
+ $X=1.097 $Y=0.185 $X2=1.054 $Y2=0.185
r106 149 150 3.96423 $w=1.8e-08 $l=1.7e-08 $layer=M1 $thickness=3.6e-08
+ $X=1.124 $Y=0.185 $X2=1.141 $Y2=0.185
r107 148 149 2.56509 $w=1.8e-08 $l=1.1e-08 $layer=M1 $thickness=3.6e-08
+ $X=1.113 $Y=0.185 $X2=1.124 $Y2=0.185
r108 148 151 3.73104 $w=1.8e-08 $l=1.6e-08 $layer=M1 $thickness=3.6e-08
+ $X=1.113 $Y=0.185 $X2=1.097 $Y2=0.185
r109 63 150 4.19742 $w=1.8e-08 $l=1.8e-08 $layer=M1 $thickness=3.6e-08 $X=1.159
+ $Y=0.185 $X2=1.141 $Y2=0.185
r110 40 147 1.50137 $w=1.8e-08 $l=1.15e-08 $layer=M1 $thickness=3.6e-08
+ $X=1.176 $Y=0.185 $X2=1.178 $Y2=0.1965
r111 40 63 3.2503 $w=1.8e-08 $l=1.9e-08 $layer=M1 $thickness=3.6e-08 $X=1.176
+ $Y=0.185 $X2=1.159 $Y2=0.185
r112 40 64 6.51495 $w=1.8e-08 $l=3.3e-08 $layer=M1 $thickness=3.6e-08 $X=1.176
+ $Y=0.185 $X2=1.178 $Y2=0.152
r113 40 66 5.11582 $w=1.8e-08 $l=2.7e-08 $layer=M1 $thickness=3.6e-08 $X=1.176
+ $Y=0.185 $X2=1.205 $Y2=0.185
r114 146 147 2.91487 $w=1.8e-08 $l=1.25e-08 $layer=M1 $thickness=3.6e-08
+ $X=1.178 $Y=0.209 $X2=1.178 $Y2=0.1965
r115 145 146 2.56509 $w=1.8e-08 $l=1.1e-08 $layer=M1 $thickness=3.6e-08
+ $X=1.178 $Y=0.22 $X2=1.178 $Y2=0.209
r116 144 145 2.3319 $w=1.8e-08 $l=1e-08 $layer=M1 $thickness=3.6e-08 $X=1.178
+ $Y=0.23 $X2=1.178 $Y2=0.22
r117 143 144 3.03147 $w=1.8e-08 $l=1.3e-08 $layer=M1 $thickness=3.6e-08
+ $X=1.178 $Y=0.243 $X2=1.178 $Y2=0.23
r118 142 143 1.04935 $w=1.8e-08 $l=4.5e-09 $layer=M1 $thickness=3.6e-08
+ $X=1.178 $Y=0.2475 $X2=1.178 $Y2=0.243
r119 65 142 3.26466 $w=1.8e-08 $l=1.4e-08 $layer=M1 $thickness=3.6e-08 $X=1.178
+ $Y=0.2615 $X2=1.178 $Y2=0.2475
r120 41 141 7.2121 $w=1.8e-08 $l=3.8e-08 $layer=M1 $thickness=3.6e-08 $X=1.178
+ $Y=0.284 $X2=1.14 $Y2=0.284
r121 41 65 3.59766 $w=1.8e-08 $l=2.25e-08 $layer=M1 $thickness=3.6e-08 $X=1.178
+ $Y=0.284 $X2=1.178 $Y2=0.2615
r122 140 141 10.0272 $w=1.8e-08 $l=4.3e-08 $layer=M1 $thickness=3.6e-08
+ $X=1.097 $Y=0.284 $X2=1.14 $Y2=0.284
r123 139 140 12.1259 $w=1.8e-08 $l=5.2e-08 $layer=M1 $thickness=3.6e-08
+ $X=1.045 $Y=0.284 $X2=1.097 $Y2=0.284
r124 138 139 9.91056 $w=1.8e-08 $l=4.25e-08 $layer=M1 $thickness=3.6e-08
+ $X=1.0025 $Y=0.284 $X2=1.045 $Y2=0.284