* Design:	ADDER_M
* Created:	"Thu Dec 8 2022"
* Vendor:	"Mentor Graphics Corporation"
* Program:	"Calibre xACT 3D"
* Version:	"v2017.4_19.14"
* Corner Name: typical_27
* Nominal Temperature: 25C
* Circuit Temperature: 27C
* 
* Integrated TICER reduction is not enabled.
* SHORT DELAY THRESHOLD: 2e-15
* Fill Mode: NG
* PEX REDUCE CC ABSOLUTE : 1
* PEX REDUCE CC RELATIVE : 0.01
* Delta transform mode : 344834

* .include "ADDER_M.pex.netlist.pex"

* Start of included file ADDER_M.pex.netlist.pex

.subckt PM_ADDER_M%NET9 VSS 6 7 3 1
c1 1 VSS 0.00295451f $X=0.702 $Y=0.076
c2 3 VSS 0.00215977f $X=0.6875 $Y=0.076
r1 7 5 0.0462963 $w=5.4e-08 $l=2.5e-09 $layer=<ENCRYPTED_LAYER_48>
+ $thickness=1e-09 $X=0.7193 $Y=0.076 $X2=0.7165 $Y2=0.076
r2 1 5 0.268519 $w=5.4e-08 $l=1.45e-08 $layer=<ENCRYPTED_LAYER_48>
+ $thickness=1e-09 $X=0.702 $Y=0.076 $X2=0.7165 $Y2=0.076
r3 3 1 0.268519 $w=5.4e-08 $l=1.45e-08 $layer=<ENCRYPTED_LAYER_48>
+ $thickness=1e-09 $X=0.6875 $Y=0.076 $X2=0.702 $Y2=0.076
r4 6 3 0.0462963 $w=5.4e-08 $l=2.5e-09 $layer=<ENCRYPTED_LAYER_48>
+ $thickness=1e-09 $X=0.6846 $Y=0.076 $X2=0.6875 $Y2=0.076
.ends

.subckt PM_ADDER_M%NET7 VSS 12 13 18 19 7 9 8 2 1
c1 1 VSS 0.00805655f $X=0.486 $Y=0.076
c2 2 VSS 0.00603864f $X=0.594 $Y=0.076
c3 7 VSS 0.00374746f $X=0.4715 $Y=0.076
c4 8 VSS 0.00287326f $X=0.5795 $Y=0.076
c5 9 VSS 0.0112876f $X=0.486 $Y=0.058
r1 19 17 0.0462963 $w=5.4e-08 $l=2.5e-09 $layer=<ENCRYPTED_LAYER_48>
+ $thickness=1e-09 $X=0.6113 $Y=0.076 $X2=0.6085 $Y2=0.076
r2 2 17 0.268519 $w=5.4e-08 $l=1.45e-08 $layer=<ENCRYPTED_LAYER_48>
+ $thickness=1e-09 $X=0.594 $Y=0.076 $X2=0.6085 $Y2=0.076
r3 8 2 0.268519 $w=5.4e-08 $l=1.45e-08 $layer=<ENCRYPTED_LAYER_48>
+ $thickness=1e-09 $X=0.5795 $Y=0.076 $X2=0.594 $Y2=0.076
r4 18 8 0.0462963 $w=5.4e-08 $l=2.5e-09 $layer=<ENCRYPTED_LAYER_48>
+ $thickness=1e-09 $X=0.5766 $Y=0.076 $X2=0.5795 $Y2=0.076
r5 2 15 19.3796 $w=1.8e-08 $l=1.8e-08 $layer=<ENCRYPTED_LAYER_7> $X=0.594
+ $Y=0.076 $X2=0.594 $Y2=0.058
r6 14 15 12.5922 $w=1.8e-08 $l=5.4e-08 $layer=M1 $thickness=3.6e-08 $X=0.54
+ $Y=0.058 $X2=0.594 $Y2=0.058
r7 9 14 12.5922 $w=1.8e-08 $l=5.4e-08 $layer=M1 $thickness=3.6e-08 $X=0.486
+ $Y=0.058 $X2=0.54 $Y2=0.058
r8 1 9 19.3796 $w=1.8e-08 $l=1.8e-08 $layer=<ENCRYPTED_LAYER_7> $X=0.486
+ $Y=0.076 $X2=0.486 $Y2=0.058
r9 13 11 0.0462963 $w=5.4e-08 $l=2.5e-09 $layer=<ENCRYPTED_LAYER_48>
+ $thickness=1e-09 $X=0.5033 $Y=0.076 $X2=0.5005 $Y2=0.076
r10 1 11 0.268519 $w=5.4e-08 $l=1.45e-08 $layer=<ENCRYPTED_LAYER_48>
+ $thickness=1e-09 $X=0.486 $Y=0.076 $X2=0.5005 $Y2=0.076
r11 7 1 0.268519 $w=5.4e-08 $l=1.45e-08 $layer=<ENCRYPTED_LAYER_48>
+ $thickness=1e-09 $X=0.4715 $Y=0.076 $X2=0.486 $Y2=0.076
r12 12 7 0.0462963 $w=5.4e-08 $l=2.5e-09 $layer=<ENCRYPTED_LAYER_48>
+ $thickness=1e-09 $X=0.4686 $Y=0.076 $X2=0.4715 $Y2=0.076
.ends

.subckt PM_ADDER_M%NET10 VSS 6 7 3 1
c1 1 VSS 0.00440889f $X=0.756 $Y=0.238
c2 3 VSS 0.00299258f $X=0.7415 $Y=0.238
r1 7 5 0.0462963 $w=5.4e-08 $l=2.5e-09 $layer=<ENCRYPTED_LAYER_49>
+ $thickness=1e-09 $X=0.7733 $Y=0.238 $X2=0.7705 $Y2=0.238
r2 1 5 0.268519 $w=5.4e-08 $l=1.45e-08 $layer=<ENCRYPTED_LAYER_49>
+ $thickness=1e-09 $X=0.756 $Y=0.238 $X2=0.7705 $Y2=0.238
r3 3 1 0.268519 $w=5.4e-08 $l=1.45e-08 $layer=<ENCRYPTED_LAYER_49>
+ $thickness=1e-09 $X=0.7415 $Y=0.238 $X2=0.756 $Y2=0.238
r4 6 3 0.0462963 $w=5.4e-08 $l=2.5e-09 $layer=<ENCRYPTED_LAYER_49>
+ $thickness=1e-09 $X=0.7386 $Y=0.238 $X2=0.7415 $Y2=0.238
.ends

.subckt PM_ADDER_M%NET2 VSS 6 7 3 1
c1 1 VSS 0.00431611f $X=0.378 $Y=0.238
c2 3 VSS 0.0029361f $X=0.3635 $Y=0.238
r1 7 5 0.0462963 $w=5.4e-08 $l=2.5e-09 $layer=<ENCRYPTED_LAYER_49>
+ $thickness=1e-09 $X=0.3953 $Y=0.238 $X2=0.3925 $Y2=0.238
r2 1 5 0.268519 $w=5.4e-08 $l=1.45e-08 $layer=<ENCRYPTED_LAYER_49>
+ $thickness=1e-09 $X=0.378 $Y=0.238 $X2=0.3925 $Y2=0.238
r3 3 1 0.268519 $w=5.4e-08 $l=1.45e-08 $layer=<ENCRYPTED_LAYER_49>
+ $thickness=1e-09 $X=0.3635 $Y=0.238 $X2=0.378 $Y2=0.238
r4 6 3 0.0462963 $w=5.4e-08 $l=2.5e-09 $layer=<ENCRYPTED_LAYER_49>
+ $thickness=1e-09 $X=0.3606 $Y=0.238 $X2=0.3635 $Y2=0.238
.ends

.subckt PM_ADDER_M%A VSS 35 25 31 62 65 74 77 80 83 16 13 14 18 3 2 4 15 1 20
+ 19 12 9 10 11 17
c1 1 VSS 0.00439574f $X=0.081 $Y=0.157
c2 2 VSS 0.000284732f $X=0.351 $Y=0.157
c3 3 VSS 0.00137341f $X=0.513 $Y=0.157
c4 4 VSS 0.000279452f $X=0.729 $Y=0.157
c5 9 VSS 0.0658896f $X=0.081 $Y=0.0465
c6 10 VSS 0.00456046f $X=0.351 $Y=0.157
c7 11 VSS 0.0590374f $X=0.513 $Y=0.157
c8 12 VSS 0.00463728f $X=0.729 $Y=0.157
c9 13 VSS 0.0106141f $X=0.081 $Y=0.157
c10 14 VSS 0.000489602f $X=0.351 $Y=0.1895
c11 15 VSS 0.000281728f $X=0.513 $Y=0.1425
c12 16 VSS 0.00152733f $X=0.729 $Y=0.1895
c13 17 VSS 0.000647264f $X=0.513 $Y=0.211
c14 18 VSS 0.0317209f $X=0.081 $Y=0.211
c15 19 VSS 0.000107675f $X=0.513 $Y=0.1895
c16 20 VSS 0.0134377f $X=0.54 $Y=0.211
r1 83 82 16.4967 $w=2e-08 $l=4.85e-08 $layer=<ENCRYPTED_LAYER_23>
+ $thickness=5.6e-08 $X=0.729 $Y=0.238 $X2=0.729 $Y2=0.1895
r2 80 81 16.4967 $w=2e-08 $l=4.85e-08 $layer=<ENCRYPTED_LAYER_23>
+ $thickness=5.6e-08 $X=0.729 $Y=0.076 $X2=0.729 $Y2=0.1245
r3 12 81 11.2416 $w=2e-08 $l=3.25e-08 $layer=<ENCRYPTED_LAYER_23>
+ $thickness=5.6e-08 $X=0.729 $Y=0.157 $X2=0.729 $Y2=0.1245
r4 12 82 11.2416 $w=2e-08 $l=3.25e-08 $layer=<ENCRYPTED_LAYER_23>
+ $thickness=5.6e-08 $X=0.729 $Y=0.157 $X2=0.729 $Y2=0.1895
r5 77 76 16.4967 $w=2e-08 $l=4.85e-08 $layer=<ENCRYPTED_LAYER_23>
+ $thickness=5.6e-08 $X=0.513 $Y=0.238 $X2=0.513 $Y2=0.1895
r6 74 75 16.4967 $w=2e-08 $l=4.85e-08 $layer=<ENCRYPTED_LAYER_23>
+ $thickness=5.6e-08 $X=0.513 $Y=0.076 $X2=0.513 $Y2=0.1245
r7 11 75 11.2416 $w=2e-08 $l=3.25e-08 $layer=<ENCRYPTED_LAYER_23>
+ $thickness=5.6e-08 $X=0.513 $Y=0.157 $X2=0.513 $Y2=0.1245
r8 11 76 11.2416 $w=2e-08 $l=3.25e-08 $layer=<ENCRYPTED_LAYER_23>
+ $thickness=5.6e-08 $X=0.513 $Y=0.157 $X2=0.513 $Y2=0.1895
r9 4 72 19.3796 $w=1.8e-08 $l=1.8e-08 $layer=<ENCRYPTED_LAYER_4> $X=0.729
+ $Y=0.157 $X2=0.729 $Y2=0.157
r10 4 12 10.4265 $w=2.1e-08 $layer=LIG $thickness=5.2e-08 $X=0.729 $Y=0.157
+ $X2=0.729 $Y2=0.157
r11 3 67 19.3796 $w=1.8e-08 $l=1.8e-08 $layer=<ENCRYPTED_LAYER_4> $X=0.513
+ $Y=0.157 $X2=0.513 $Y2=0.157
r12 3 11 10.4265 $w=2.1e-08 $layer=LIG $thickness=5.2e-08 $X=0.513 $Y=0.157
+ $X2=0.513 $Y2=0.157
r13 71 72 3.38125 $w=1.8e-08 $l=1.45e-08 $layer=M1 $thickness=3.6e-08 $X=0.729
+ $Y=0.1715 $X2=0.729 $Y2=0.157
r14 16 69 5.01358 $w=1.8e-08 $l=2.15e-08 $layer=M1 $thickness=3.6e-08 $X=0.729
+ $Y=0.1895 $X2=0.729 $Y2=0.211
r15 16 71 4.19742 $w=1.8e-08 $l=1.8e-08 $layer=M1 $thickness=3.6e-08 $X=0.729
+ $Y=0.1895 $X2=0.729 $Y2=0.1715
r16 15 67 3.38125 $w=1.8e-08 $l=1.45e-08 $layer=M1 $thickness=3.6e-08 $X=0.513
+ $Y=0.1425 $X2=0.513 $Y2=0.157
r17 65 64 16.4967 $w=2e-08 $l=4.85e-08 $layer=<ENCRYPTED_LAYER_23>
+ $thickness=5.6e-08 $X=0.351 $Y=0.238 $X2=0.351 $Y2=0.1895
r18 62 63 16.4967 $w=2e-08 $l=4.85e-08 $layer=<ENCRYPTED_LAYER_23>
+ $thickness=5.6e-08 $X=0.351 $Y=0.076 $X2=0.351 $Y2=0.1245
r19 10 63 11.2416 $w=2e-08 $l=3.25e-08 $layer=<ENCRYPTED_LAYER_23>
+ $thickness=5.6e-08 $X=0.351 $Y=0.157 $X2=0.351 $Y2=0.1245
r20 10 64 11.2416 $w=2e-08 $l=3.25e-08 $layer=<ENCRYPTED_LAYER_23>
+ $thickness=5.6e-08 $X=0.351 $Y=0.157 $X2=0.351 $Y2=0.1895
r21 60 69 19.5347 $w=1.8e-08 $l=1.8e-08 $layer=V1 $X=0.729 $Y=0.211 $X2=0.729
+ $Y2=0.211
r22 59 60 6.29612 $w=1.8e-08 $l=2.7e-08 $layer=M2 $thickness=3.6e-08 $X=0.702
+ $Y=0.211 $X2=0.729 $Y2=0.211
r23 58 59 6.29612 $w=1.8e-08 $l=2.7e-08 $layer=M2 $thickness=3.6e-08 $X=0.675
+ $Y=0.211 $X2=0.702 $Y2=0.211
r24 57 58 12.5922 $w=1.8e-08 $l=5.4e-08 $layer=M2 $thickness=3.6e-08 $X=0.621
+ $Y=0.211 $X2=0.675 $Y2=0.211
r25 56 57 12.5922 $w=1.8e-08 $l=5.4e-08 $layer=M2 $thickness=3.6e-08 $X=0.567
+ $Y=0.211 $X2=0.621 $Y2=0.211
r26 20 56 6.29612 $w=1.8e-08 $l=2.7e-08 $layer=M2 $thickness=3.6e-08 $X=0.54
+ $Y=0.211 $X2=0.567 $Y2=0.211
r27 55 67 19.5347 $w=1.8e-08 $l=1.8e-08 $layer=V1 $X=0.513 $Y=0.157 $X2=0.513
+ $Y2=0.157
r28 54 55 3.38125 $w=1.8e-08 $l=1.45e-08 $layer=M2 $thickness=3.6e-08 $X=0.513
+ $Y=0.1715 $X2=0.513 $Y2=0.157
r29 19 54 4.19742 $w=1.8e-08 $l=1.8e-08 $layer=M2 $thickness=3.6e-08 $X=0.513
+ $Y=0.1895 $X2=0.513 $Y2=0.1715
r30 2 50 19.3796 $w=1.8e-08 $l=1.8e-08 $layer=<ENCRYPTED_LAYER_4> $X=0.351
+ $Y=0.157 $X2=0.351 $Y2=0.157
r31 2 10 10.4265 $w=2.1e-08 $layer=LIG $thickness=5.2e-08 $X=0.351 $Y=0.157
+ $X2=0.351 $Y2=0.157
r32 17 48 5.11582 $w=1.8e-08 $l=2.7e-08 $layer=M2 $thickness=3.6e-08 $X=0.513
+ $Y=0.211 $X2=0.486 $Y2=0.211
r33 17 19 3.83327 $w=1.8e-08 $l=2.15e-08 $layer=M2 $thickness=3.6e-08 $X=0.513
+ $Y=0.211 $X2=0.513 $Y2=0.1895
r34 17 20 5.11582 $w=1.8e-08 $l=2.7e-08 $layer=M2 $thickness=3.6e-08 $X=0.513
+ $Y=0.211 $X2=0.54 $Y2=0.211
r35 50 51 3.38125 $w=1.8e-08 $l=1.45e-08 $layer=M1 $thickness=3.6e-08 $X=0.351
+ $Y=0.157 $X2=0.351 $Y2=0.1715
r36 14 49 3.96423 $w=1.8e-08 $l=1.7e-08 $layer=M1 $thickness=3.6e-08 $X=0.351
+ $Y=0.1895 $X2=0.351 $Y2=0.2065
r37 14 51 4.19742 $w=1.8e-08 $l=1.8e-08 $layer=M1 $thickness=3.6e-08 $X=0.351
+ $Y=0.1895 $X2=0.351 $Y2=0.1715
r38 47 48 6.29612 $w=1.8e-08 $l=2.7e-08 $layer=M2 $thickness=3.6e-08 $X=0.459
+ $Y=0.211 $X2=0.486 $Y2=0.211
r39 46 47 6.29612 $w=1.8e-08 $l=2.7e-08 $layer=M2 $thickness=3.6e-08 $X=0.432
+ $Y=0.211 $X2=0.459 $Y2=0.211
r40 45 46 6.29612 $w=1.8e-08 $l=2.7e-08 $layer=M2 $thickness=3.6e-08 $X=0.405
+ $Y=0.211 $X2=0.432 $Y2=0.211
r41 44 45 6.29612 $w=1.8e-08 $l=2.7e-08 $layer=M2 $thickness=3.6e-08 $X=0.378
+ $Y=0.211 $X2=0.405 $Y2=0.211
r42 43 44 6.29612 $w=1.8e-08 $l=2.7e-08 $layer=M2 $thickness=3.6e-08 $X=0.351
+ $Y=0.211 $X2=0.378 $Y2=0.211
r43 43 49 19.5347 $w=1.8e-08 $l=1.8e-08 $layer=V1 $X=0.351 $Y=0.211 $X2=0.351
+ $Y2=0.2065
r44 42 43 6.29612 $w=1.8e-08 $l=2.7e-08 $layer=M2 $thickness=3.6e-08 $X=0.324
+ $Y=0.211 $X2=0.351 $Y2=0.211
r45 41 42 6.29612 $w=1.8e-08 $l=2.7e-08 $layer=M2 $thickness=3.6e-08 $X=0.297
+ $Y=0.211 $X2=0.324 $Y2=0.211
r46 40 41 20.9871 $w=1.8e-08 $l=9e-08 $layer=M2 $thickness=3.6e-08 $X=0.207
+ $Y=0.211 $X2=0.297 $Y2=0.211
r47 39 40 23.0858 $w=1.8e-08 $l=9.9e-08 $layer=M2 $thickness=3.6e-08 $X=0.108
+ $Y=0.211 $X2=0.207 $Y2=0.211
r48 18 39 6.29612 $w=1.8e-08 $l=2.7e-08 $layer=M2 $thickness=3.6e-08 $X=0.081
+ $Y=0.211 $X2=0.108 $Y2=0.211
r49 18 37 19.5347 $w=1.8e-08 $l=1.8e-08 $layer=V1 $X=0.081 $Y=0.211 $X2=0.081
+ $Y2=0.211
r50 36 37 3.78933 $w=1.8e-08 $l=1.63e-08 $layer=M1 $thickness=3.6e-08 $X=0.081
+ $Y=0.1947 $X2=0.081 $Y2=0.211
r51 35 36 1.80722 $w=1.8e-08 $l=7.7e-09 $layer=M1 $thickness=3.6e-08 $X=0.088
+ $Y=0.187 $X2=0.081 $Y2=0.1947
r52 35 34 1.22425 $w=1.8e-08 $l=5.3e-09 $layer=M1 $thickness=3.6e-08 $X=0.088
+ $Y=0.187 $X2=0.081 $Y2=0.1817
r53 33 34 2.3902 $w=1.8e-08 $l=1.02e-08 $layer=M1 $thickness=3.6e-08 $X=0.081
+ $Y=0.1715 $X2=0.081 $Y2=0.1817
r54 13 33 3.38125 $w=1.8e-08 $l=1.45e-08 $layer=M1 $thickness=3.6e-08 $X=0.081
+ $Y=0.157 $X2=0.081 $Y2=0.1715
r55 1 28 10.4265 $w=2.1e-08 $layer=LIG $thickness=5.2e-08 $X=0.081 $Y=0.157
+ $X2=0.081 $Y2=0.157
r56 1 13 19.3796 $w=1.8e-08 $l=1.8e-08 $layer=<ENCRYPTED_LAYER_4> $X=0.081
+ $Y=0.157 $X2=0.081 $Y2=0.157
r57 31 30 14.6259 $w=2e-08 $l=4.3e-08 $layer=<ENCRYPTED_LAYER_23>
+ $thickness=5.6e-08 $X=0.081 $Y=0.238 $X2=0.081 $Y2=0.195
r58 29 30 7.31297 $w=2e-08 $l=2.15e-08 $layer=<ENCRYPTED_LAYER_23>
+ $thickness=5.6e-08 $X=0.081 $Y=0.1735 $X2=0.081 $Y2=0.195
r59 28 29 5.79936 $w=2e-08 $l=1.65e-08 $layer=<ENCRYPTED_LAYER_23>
+ $thickness=5.6e-08 $X=0.081 $Y=0.157 $X2=0.081 $Y2=0.1735
r60 27 28 5.79936 $w=2e-08 $l=1.65e-08 $layer=<ENCRYPTED_LAYER_23>
+ $thickness=5.6e-08 $X=0.081 $Y=0.1405 $X2=0.081 $Y2=0.157
r61 26 27 7.31297 $w=2e-08 $l=2.15e-08 $layer=<ENCRYPTED_LAYER_23>
+ $thickness=5.6e-08 $X=0.081 $Y=0.119 $X2=0.081 $Y2=0.1405
r62 25 26 14.6259 $w=2e-08 $l=4.3e-08 $layer=<ENCRYPTED_LAYER_23>
+ $thickness=5.6e-08 $X=0.081 $Y=0.076 $X2=0.081 $Y2=0.119
r63 25 9 10.0341 $w=2e-08 $l=2.95e-08 $layer=<ENCRYPTED_LAYER_23>
+ $thickness=5.6e-08 $X=0.081 $Y=0.076 $X2=0.081 $Y2=0.0465
.ends

.subckt PM_ADDER_M%~COUT VSS 35 25 29 67 68 71 72 10 15 23 22 9 4 18 21 11 3 19
+ 14 24 17 13 12 20 16 1
c1 1 VSS 0.000787785f $X=0.621 $Y=0.157
c2 3 VSS 0.0050703f $X=0.324 $Y=0.076
c3 4 VSS 0.00507717f $X=0.324 $Y=0.238
c4 9 VSS 0.00504611f $X=0.621 $Y=0.0465
c5 10 VSS 0.00308081f $X=0.3095 $Y=0.076
c6 11 VSS 0.00307713f $X=0.3095 $Y=0.238
c7 12 VSS 0.00342685f $X=0.432 $Y=0.058
c8 13 VSS 0.000859898f $X=0.432 $Y=0.094
c9 14 VSS 0.000857049f $X=0.432 $Y=0.22
c10 15 VSS 0.00336668f $X=0.432 $Y=0.256
c11 16 VSS 0.000544957f $X=0.621 $Y=0.0975
c12 17 VSS 0.000543851f $X=0.621 $Y=0.2165
c13 18 VSS 0.00996114f $X=0.418 $Y=0.058
c14 19 VSS 0.00981125f $X=0.418 $Y=0.256
c15 20 VSS 0.000995017f $X=0.432 $Y=0.076
c16 21 VSS 0.000998464f $X=0.432 $Y=0.238
c17 22 VSS 0.00294701f $X=0.6075 $Y=0.094
c18 23 VSS 0.00294831f $X=0.6075 $Y=0.22
c19 24 VSS 0.000657531f $X=0.621 $Y=0.1425
r1 72 70 0.0462963 $w=5.4e-08 $l=2.5e-09 $layer=<ENCRYPTED_LAYER_49>
+ $thickness=1e-09 $X=0.3413 $Y=0.238 $X2=0.3385 $Y2=0.238
r2 4 70 0.268519 $w=5.4e-08 $l=1.45e-08 $layer=<ENCRYPTED_LAYER_49>
+ $thickness=1e-09 $X=0.324 $Y=0.238 $X2=0.3385 $Y2=0.238
r3 11 4 0.268519 $w=5.4e-08 $l=1.45e-08 $layer=<ENCRYPTED_LAYER_49>
+ $thickness=1e-09 $X=0.3095 $Y=0.238 $X2=0.324 $Y2=0.238
r4 71 11 0.0462963 $w=5.4e-08 $l=2.5e-09 $layer=<ENCRYPTED_LAYER_49>
+ $thickness=1e-09 $X=0.3066 $Y=0.238 $X2=0.3095 $Y2=0.238
r5 68 66 0.0462963 $w=5.4e-08 $l=2.5e-09 $layer=<ENCRYPTED_LAYER_48>
+ $thickness=1e-09 $X=0.3413 $Y=0.076 $X2=0.3385 $Y2=0.076
r6 3 66 0.268519 $w=5.4e-08 $l=1.45e-08 $layer=<ENCRYPTED_LAYER_48>
+ $thickness=1e-09 $X=0.324 $Y=0.076 $X2=0.3385 $Y2=0.076
r7 10 3 0.268519 $w=5.4e-08 $l=1.45e-08 $layer=<ENCRYPTED_LAYER_48>
+ $thickness=1e-09 $X=0.3095 $Y=0.076 $X2=0.324 $Y2=0.076
r8 67 10 0.0462963 $w=5.4e-08 $l=2.5e-09 $layer=<ENCRYPTED_LAYER_48>
+ $thickness=1e-09 $X=0.3066 $Y=0.076 $X2=0.3095 $Y2=0.076
r9 4 63 19.3796 $w=1.8e-08 $l=1.8e-08 $layer=<ENCRYPTED_LAYER_7> $X=0.324
+ $Y=0.238 $X2=0.324 $Y2=0.256
r10 3 58 19.3796 $w=1.8e-08 $l=1.8e-08 $layer=<ENCRYPTED_LAYER_7> $X=0.324
+ $Y=0.076 $X2=0.324 $Y2=0.058
r11 63 64 3.14806 $w=1.8e-08 $l=1.35e-08 $layer=M1 $thickness=3.6e-08 $X=0.324
+ $Y=0.256 $X2=0.3375 $Y2=0.256
r12 62 64 3.14806 $w=1.8e-08 $l=1.35e-08 $layer=M1 $thickness=3.6e-08 $X=0.351
+ $Y=0.256 $X2=0.3375 $Y2=0.256
r13 61 62 6.29612 $w=1.8e-08 $l=2.7e-08 $layer=M1 $thickness=3.6e-08 $X=0.378
+ $Y=0.256 $X2=0.351 $Y2=0.256
r14 60 61 6.29612 $w=1.8e-08 $l=2.7e-08 $layer=M1 $thickness=3.6e-08 $X=0.405
+ $Y=0.256 $X2=0.378 $Y2=0.256
r15 19 60 3.03147 $w=1.8e-08 $l=1.3e-08 $layer=M1 $thickness=3.6e-08 $X=0.418
+ $Y=0.256 $X2=0.405 $Y2=0.256
r16 58 59 3.14806 $w=1.8e-08 $l=1.35e-08 $layer=M1 $thickness=3.6e-08 $X=0.324
+ $Y=0.058 $X2=0.3375 $Y2=0.058
r17 57 59 3.14806 $w=1.8e-08 $l=1.35e-08 $layer=M1 $thickness=3.6e-08 $X=0.351
+ $Y=0.058 $X2=0.3375 $Y2=0.058
r18 56 57 6.29612 $w=1.8e-08 $l=2.7e-08 $layer=M1 $thickness=3.6e-08 $X=0.378
+ $Y=0.058 $X2=0.351 $Y2=0.058
r19 55 56 6.29612 $w=1.8e-08 $l=2.7e-08 $layer=M1 $thickness=3.6e-08 $X=0.405
+ $Y=0.058 $X2=0.378 $Y2=0.058
r20 18 55 3.03147 $w=1.8e-08 $l=1.3e-08 $layer=M1 $thickness=3.6e-08 $X=0.418
+ $Y=0.058 $X2=0.405 $Y2=0.058
r21 15 21 1.97054 $w=2e-08 $l=1.8e-08 $layer=M1 $thickness=3.6e-08 $X=0.432
+ $Y=0.256 $X2=0.432 $Y2=0.238
r22 15 19 1.37113 $w=1.8e-08 $l=1.4e-08 $layer=M1 $thickness=3.6e-08 $X=0.432
+ $Y=0.256 $X2=0.418 $Y2=0.256
r23 12 20 1.97054 $w=2e-08 $l=1.8e-08 $layer=M1 $thickness=3.6e-08 $X=0.432
+ $Y=0.058 $X2=0.432 $Y2=0.076
r24 12 18 1.37113 $w=1.8e-08 $l=1.4e-08 $layer=M1 $thickness=3.6e-08 $X=0.432
+ $Y=0.058 $X2=0.418 $Y2=0.058
r25 14 54 1.37113 $w=1.8e-08 $l=1.4e-08 $layer=M1 $thickness=3.6e-08 $X=0.432
+ $Y=0.22 $X2=0.446 $Y2=0.22
r26 14 21 1.97054 $w=2e-08 $l=1.8e-08 $layer=M1 $thickness=3.6e-08 $X=0.432
+ $Y=0.22 $X2=0.432 $Y2=0.238
r27 13 46 1.37113 $w=1.8e-08 $l=1.4e-08 $layer=M1 $thickness=3.6e-08 $X=0.432
+ $Y=0.094 $X2=0.446 $Y2=0.094
r28 13 20 1.97054 $w=2e-08 $l=1.8e-08 $layer=M1 $thickness=3.6e-08 $X=0.432
+ $Y=0.094 $X2=0.432 $Y2=0.076
r29 53 54 3.03147 $w=1.8e-08 $l=1.3e-08 $layer=M1 $thickness=3.6e-08 $X=0.459
+ $Y=0.22 $X2=0.446 $Y2=0.22
r30 52 53 3.14806 $w=1.8e-08 $l=1.35e-08 $layer=M1 $thickness=3.6e-08 $X=0.4725
+ $Y=0.22 $X2=0.459 $Y2=0.22
r31 51 52 4.19742 $w=1.8e-08 $l=1.8e-08 $layer=M1 $thickness=3.6e-08 $X=0.4905
+ $Y=0.22 $X2=0.4725 $Y2=0.22
r32 50 51 5.24677 $w=1.8e-08 $l=2.25e-08 $layer=M1 $thickness=3.6e-08 $X=0.513
+ $Y=0.22 $X2=0.4905 $Y2=0.22
r33 49 50 6.29612 $w=1.8e-08 $l=2.7e-08 $layer=M1 $thickness=3.6e-08 $X=0.54
+ $Y=0.22 $X2=0.513 $Y2=0.22
r34 48 49 6.29612 $w=1.8e-08 $l=2.7e-08 $layer=M1 $thickness=3.6e-08 $X=0.567
+ $Y=0.22 $X2=0.54 $Y2=0.22
r35 47 48 5.24677 $w=1.8e-08 $l=2.25e-08 $layer=M1 $thickness=3.6e-08 $X=0.5895
+ $Y=0.22 $X2=0.567 $Y2=0.22
r36 23 47 4.19742 $w=1.8e-08 $l=1.8e-08 $layer=M1 $thickness=3.6e-08 $X=0.6075
+ $Y=0.22 $X2=0.5895 $Y2=0.22
r37 45 46 3.03147 $w=1.8e-08 $l=1.3e-08 $layer=M1 $thickness=3.6e-08 $X=0.459
+ $Y=0.094 $X2=0.446 $Y2=0.094
r38 44 45 3.14806 $w=1.8e-08 $l=1.35e-08 $layer=M1 $thickness=3.6e-08 $X=0.4725
+ $Y=0.094 $X2=0.459 $Y2=0.094
r39 43 44 4.19742 $w=1.8e-08 $l=1.8e-08 $layer=M1 $thickness=3.6e-08 $X=0.4905
+ $Y=0.094 $X2=0.4725 $Y2=0.094
r40 42 43 5.24677 $w=1.8e-08 $l=2.25e-08 $layer=M1 $thickness=3.6e-08 $X=0.513
+ $Y=0.094 $X2=0.4905 $Y2=0.094
r41 41 42 6.29612 $w=1.8e-08 $l=2.7e-08 $layer=M1 $thickness=3.6e-08 $X=0.54
+ $Y=0.094 $X2=0.513 $Y2=0.094
r42 40 41 6.29612 $w=1.8e-08 $l=2.7e-08 $layer=M1 $thickness=3.6e-08 $X=0.567
+ $Y=0.094 $X2=0.54 $Y2=0.094
r43 39 40 5.24677 $w=1.8e-08 $l=2.25e-08 $layer=M1 $thickness=3.6e-08 $X=0.5895
+ $Y=0.094 $X2=0.567 $Y2=0.094
r44 22 39 4.19742 $w=1.8e-08 $l=1.8e-08 $layer=M1 $thickness=3.6e-08 $X=0.6075
+ $Y=0.094 $X2=0.5895 $Y2=0.094
r45 17 36 3.8842 $w=1.8e-08 $l=1.98e-08 $layer=M1 $thickness=3.6e-08 $X=0.621
+ $Y=0.2165 $X2=0.621 $Y2=0.1967
r46 17 23 1.6106 $w=1.8e-08 $l=1.39463e-08 $layer=M1 $thickness=3.6e-08
+ $X=0.621 $Y=0.2165 $X2=0.6075 $Y2=0.22
r47 16 33 4.52547 $w=1.8e-08 $l=2.25e-08 $layer=M1 $thickness=3.6e-08 $X=0.621
+ $Y=0.0975 $X2=0.621 $Y2=0.12
r48 16 22 1.6106 $w=1.8e-08 $l=1.39463e-08 $layer=M1 $thickness=3.6e-08
+ $X=0.621 $Y=0.0975 $X2=0.6075 $Y2=0.094
r49 35 36 3.43955 $w=1.8e-08 $l=1.47e-08 $layer=M1 $thickness=3.6e-08 $X=0.627
+ $Y=0.182 $X2=0.621 $Y2=0.1967
r50 35 34 0.641272 $w=1.8e-08 $l=2.8e-09 $layer=M1 $thickness=3.6e-08 $X=0.627
+ $Y=0.182 $X2=0.621 $Y2=0.1792
r51 32 34 1.80722 $w=1.8e-08 $l=7.7e-09 $layer=M1 $thickness=3.6e-08 $X=0.621
+ $Y=0.1715 $X2=0.621 $Y2=0.1792
r52 31 32 3.38125 $w=1.8e-08 $l=1.45e-08 $layer=M1 $thickness=3.6e-08 $X=0.621
+ $Y=0.157 $X2=0.621 $Y2=0.1715
r53 24 31 3.38125 $w=1.8e-08 $l=1.45e-08 $layer=M1 $thickness=3.6e-08 $X=0.621
+ $Y=0.1425 $X2=0.621 $Y2=0.157
r54 24 33 5.24677 $w=1.8e-08 $l=2.25e-08 $layer=M1 $thickness=3.6e-08 $X=0.621
+ $Y=0.1425 $X2=0.621 $Y2=0.12
r55 1 27 10.4265 $w=2.1e-08 $layer=LIG $thickness=5.2e-08 $X=0.621 $Y=0.157
+ $X2=0.621 $Y2=0.157
r56 1 31 19.3796 $w=1.8e-08 $l=1.8e-08 $layer=<ENCRYPTED_LAYER_4> $X=0.621
+ $Y=0.157 $X2=0.621 $Y2=0.157
r57 29 28 16.4967 $w=2e-08 $l=4.85e-08 $layer=<ENCRYPTED_LAYER_23>
+ $thickness=5.6e-08 $X=0.621 $Y=0.238 $X2=0.621 $Y2=0.1895
r58 27 28 11.2416 $w=2e-08 $l=3.25e-08 $layer=<ENCRYPTED_LAYER_23>
+ $thickness=5.6e-08 $X=0.621 $Y=0.157 $X2=0.621 $Y2=0.1895
r59 26 27 11.2416 $w=2e-08 $l=3.25e-08 $layer=<ENCRYPTED_LAYER_23>
+ $thickness=5.6e-08 $X=0.621 $Y=0.1245 $X2=0.621 $Y2=0.157
r60 25 26 16.4967 $w=2e-08 $l=4.85e-08 $layer=<ENCRYPTED_LAYER_23>
+ $thickness=5.6e-08 $X=0.621 $Y=0.076 $X2=0.621 $Y2=0.1245
r61 25 9 10.0341 $w=2e-08 $l=2.95e-08 $layer=<ENCRYPTED_LAYER_23>
+ $thickness=5.6e-08 $X=0.621 $Y=0.076 $X2=0.621 $Y2=0.0465
.ends

.subckt PM_ADDER_M%CIN VSS 10 23 27 48 51 54 57 7 15 14 13 12 11 2 3 1 16 8 9
c1 1 VSS 0.00130245f $X=0.297 $Y=0.157
c2 2 VSS 0.00123673f $X=0.567 $Y=0.157
c3 3 VSS 0.000143268f $X=0.675 $Y=0.157
c4 7 VSS 0.0121799f $X=0.297 $Y=0.0465
c5 8 VSS 0.0589462f $X=0.567 $Y=0.157
c6 9 VSS 0.00454388f $X=0.675 $Y=0.157
c7 10 VSS 0.000558264f $X=0.303 $Y=0.151
c8 11 VSS 0.000273864f $X=0.567 $Y=0.1425
c9 12 VSS 0.000172146f $X=0.675 $Y=0.1425
c10 13 VSS 0.00135834f $X=0.297 $Y=0.1425
c11 14 VSS 0.000168659f $X=0.567 $Y=0.1425
c12 15 VSS 0.0016163f $X=0.675 $Y=0.1425
c13 16 VSS 0.0377684f $X=0.2845 $Y=0.157
r1 57 56 16.4967 $w=2e-08 $l=4.85e-08 $layer=<ENCRYPTED_LAYER_23>
+ $thickness=5.6e-08 $X=0.675 $Y=0.238 $X2=0.675 $Y2=0.1895
r2 54 55 16.4967 $w=2e-08 $l=4.85e-08 $layer=<ENCRYPTED_LAYER_23>
+ $thickness=5.6e-08 $X=0.675 $Y=0.076 $X2=0.675 $Y2=0.1245
r3 9 55 11.2416 $w=2e-08 $l=3.25e-08 $layer=<ENCRYPTED_LAYER_23>
+ $thickness=5.6e-08 $X=0.675 $Y=0.157 $X2=0.675 $Y2=0.1245
r4 9 56 11.2416 $w=2e-08 $l=3.25e-08 $layer=<ENCRYPTED_LAYER_23>
+ $thickness=5.6e-08 $X=0.675 $Y=0.157 $X2=0.675 $Y2=0.1895
r5 51 50 16.4967 $w=2e-08 $l=4.85e-08 $layer=<ENCRYPTED_LAYER_23>
+ $thickness=5.6e-08 $X=0.567 $Y=0.238 $X2=0.567 $Y2=0.1895
r6 48 49 16.4967 $w=2e-08 $l=4.85e-08 $layer=<ENCRYPTED_LAYER_23>
+ $thickness=5.6e-08 $X=0.567 $Y=0.076 $X2=0.567 $Y2=0.1245
r7 8 49 11.2416 $w=2e-08 $l=3.25e-08 $layer=<ENCRYPTED_LAYER_23>
+ $thickness=5.6e-08 $X=0.567 $Y=0.157 $X2=0.567 $Y2=0.1245
r8 8 50 11.2416 $w=2e-08 $l=3.25e-08 $layer=<ENCRYPTED_LAYER_23>
+ $thickness=5.6e-08 $X=0.567 $Y=0.157 $X2=0.567 $Y2=0.1895
r9 3 45 19.3796 $w=1.8e-08 $l=1.8e-08 $layer=<ENCRYPTED_LAYER_4> $X=0.675
+ $Y=0.157 $X2=0.675 $Y2=0.157
r10 3 9 10.4265 $w=2.1e-08 $layer=LIG $thickness=5.2e-08 $X=0.675 $Y=0.157
+ $X2=0.675 $Y2=0.157
r11 2 43 19.3796 $w=1.8e-08 $l=1.8e-08 $layer=<ENCRYPTED_LAYER_4> $X=0.567
+ $Y=0.157 $X2=0.567 $Y2=0.157
r12 2 8 10.4265 $w=2.1e-08 $layer=LIG $thickness=5.2e-08 $X=0.567 $Y=0.157
+ $X2=0.567 $Y2=0.157
r13 12 45 3.38125 $w=1.8e-08 $l=1.45e-08 $layer=M1 $thickness=3.6e-08 $X=0.675
+ $Y=0.1425 $X2=0.675 $Y2=0.157
r14 11 43 3.38125 $w=1.8e-08 $l=1.45e-08 $layer=M1 $thickness=3.6e-08 $X=0.567
+ $Y=0.1425 $X2=0.567 $Y2=0.157
r15 41 45 19.5347 $w=1.8e-08 $l=1.8e-08 $layer=V1 $X=0.675 $Y=0.157 $X2=0.675
+ $Y2=0.157
r16 15 41 3.38125 $w=1.8e-08 $l=1.45e-08 $layer=M2 $thickness=3.6e-08 $X=0.675
+ $Y=0.1425 $X2=0.675 $Y2=0.157
r17 39 43 19.5347 $w=1.8e-08 $l=1.8e-08 $layer=V1 $X=0.567 $Y=0.157 $X2=0.567
+ $Y2=0.157
r18 14 39 3.38125 $w=1.8e-08 $l=1.45e-08 $layer=M2 $thickness=3.6e-08 $X=0.567
+ $Y=0.1425 $X2=0.567 $Y2=0.157
r19 37 41 19.5347 $w=1.8e-08 $l=1.8e-08 $layer=V2 $X=0.675 $Y=0.157 $X2=0.675
+ $Y2=0.157
r20 36 37 12.5922 $w=1.8e-08 $l=5.4e-08 $layer=M3 $thickness=3.6e-08 $X=0.621
+ $Y=0.157 $X2=0.675 $Y2=0.157
r21 35 36 12.5922 $w=1.8e-08 $l=5.4e-08 $layer=M3 $thickness=3.6e-08 $X=0.567
+ $Y=0.157 $X2=0.621 $Y2=0.157
r22 35 39 19.5347 $w=1.8e-08 $l=1.8e-08 $layer=V2 $X=0.567 $Y=0.157 $X2=0.567
+ $Y2=0.157
r23 34 35 31.4806 $w=1.8e-08 $l=1.35e-07 $layer=M3 $thickness=3.6e-08 $X=0.432
+ $Y=0.157 $X2=0.567 $Y2=0.157
r24 33 34 31.4806 $w=1.8e-08 $l=1.35e-07 $layer=M3 $thickness=3.6e-08 $X=0.297
+ $Y=0.157 $X2=0.432 $Y2=0.157
r25 16 33 2.91487 $w=1.8e-08 $l=1.25e-08 $layer=M3 $thickness=3.6e-08 $X=0.2845
+ $Y=0.157 $X2=0.297 $Y2=0.157
r26 31 33 19.5347 $w=1.8e-08 $l=1.8e-08 $layer=V2 $X=0.297 $Y=0.157 $X2=0.297
+ $Y2=0.157
r27 13 31 3.38125 $w=1.8e-08 $l=1.45e-08 $layer=M2 $thickness=3.6e-08 $X=0.297
+ $Y=0.1425 $X2=0.297 $Y2=0.157
r28 10 31 19.5347 $w=1.8e-08 $l=1.8e-08 $layer=V1 $X=0.303 $Y=0.151 $X2=0.297
+ $Y2=0.157
r29 1 25 10.4265 $w=2.1e-08 $layer=LIG $thickness=5.2e-08 $X=0.297 $Y=0.157
+ $X2=0.297 $Y2=0.157
r30 10 1 19.3796 $w=1.8e-08 $l=1.8e-08 $layer=<ENCRYPTED_LAYER_4> $X=0.303
+ $Y=0.151 $X2=0.297 $Y2=0.157
r31 27 26 16.4967 $w=2e-08 $l=4.85e-08 $layer=<ENCRYPTED_LAYER_23>
+ $thickness=5.6e-08 $X=0.297 $Y=0.238 $X2=0.297 $Y2=0.1895
r32 25 26 11.2416 $w=2e-08 $l=3.25e-08 $layer=<ENCRYPTED_LAYER_23>
+ $thickness=5.6e-08 $X=0.297 $Y=0.157 $X2=0.297 $Y2=0.1895
r33 24 25 11.2416 $w=2e-08 $l=3.25e-08 $layer=<ENCRYPTED_LAYER_23>
+ $thickness=5.6e-08 $X=0.297 $Y=0.1245 $X2=0.297 $Y2=0.157
r34 23 24 16.4967 $w=2e-08 $l=4.85e-08 $layer=<ENCRYPTED_LAYER_23>
+ $thickness=5.6e-08 $X=0.297 $Y=0.076 $X2=0.297 $Y2=0.1245
r35 23 7 10.0341 $w=2e-08 $l=2.95e-08 $layer=<ENCRYPTED_LAYER_23>
+ $thickness=5.6e-08 $X=0.297 $Y=0.076 $X2=0.297 $Y2=0.0465
.ends

.subckt PM_ADDER_M%NET1 VSS 6 7 3 1
c1 1 VSS 0.00279713f $X=0.702 $Y=0.238
c2 3 VSS 0.00214549f $X=0.6875 $Y=0.238
r1 6 5 0.0462963 $w=5.4e-08 $l=2.5e-09 $layer=<ENCRYPTED_LAYER_49>
+ $thickness=1e-09 $X=0.7193 $Y=0.238 $X2=0.7165 $Y2=0.238
r2 1 5 0.268519 $w=5.4e-08 $l=1.45e-08 $layer=<ENCRYPTED_LAYER_49>
+ $thickness=1e-09 $X=0.702 $Y=0.238 $X2=0.7165 $Y2=0.238
r3 3 1 0.268519 $w=5.4e-08 $l=1.45e-08 $layer=<ENCRYPTED_LAYER_49>
+ $thickness=1e-09 $X=0.6875 $Y=0.238 $X2=0.702 $Y2=0.238
r4 7 3 0.0462963 $w=5.4e-08 $l=2.5e-09 $layer=<ENCRYPTED_LAYER_49>
+ $thickness=1e-09 $X=0.6846 $Y=0.238 $X2=0.6875 $Y2=0.238
.ends

.subckt PM_ADDER_M%NET6 VSS 12 13 18 19 7 1 9 8 2
c1 1 VSS 0.00807646f $X=0.486 $Y=0.238
c2 2 VSS 0.00605415f $X=0.594 $Y=0.238
c3 7 VSS 0.00374519f $X=0.4715 $Y=0.238
c4 8 VSS 0.00287782f $X=0.5795 $Y=0.238
c5 9 VSS 0.01128f $X=0.486 $Y=0.256
r1 19 17 0.0462963 $w=5.4e-08 $l=2.5e-09 $layer=<ENCRYPTED_LAYER_49>
+ $thickness=1e-09 $X=0.6113 $Y=0.238 $X2=0.6085 $Y2=0.238
r2 2 17 0.268519 $w=5.4e-08 $l=1.45e-08 $layer=<ENCRYPTED_LAYER_49>
+ $thickness=1e-09 $X=0.594 $Y=0.238 $X2=0.6085 $Y2=0.238
r3 8 2 0.268519 $w=5.4e-08 $l=1.45e-08 $layer=<ENCRYPTED_LAYER_49>
+ $thickness=1e-09 $X=0.5795 $Y=0.238 $X2=0.594 $Y2=0.238
r4 18 8 0.0462963 $w=5.4e-08 $l=2.5e-09 $layer=<ENCRYPTED_LAYER_49>
+ $thickness=1e-09 $X=0.5766 $Y=0.238 $X2=0.5795 $Y2=0.238
r5 2 15 19.3796 $w=1.8e-08 $l=1.8e-08 $layer=<ENCRYPTED_LAYER_7> $X=0.594
+ $Y=0.238 $X2=0.594 $Y2=0.256
r6 14 15 12.5922 $w=1.8e-08 $l=5.4e-08 $layer=M1 $thickness=3.6e-08 $X=0.54
+ $Y=0.256 $X2=0.594 $Y2=0.256
r7 9 14 12.5922 $w=1.8e-08 $l=5.4e-08 $layer=M1 $thickness=3.6e-08 $X=0.486
+ $Y=0.256 $X2=0.54 $Y2=0.256
r8 1 9 19.3796 $w=1.8e-08 $l=1.8e-08 $layer=<ENCRYPTED_LAYER_7> $X=0.486
+ $Y=0.238 $X2=0.486 $Y2=0.256
r9 13 11 0.0462963 $w=5.4e-08 $l=2.5e-09 $layer=<ENCRYPTED_LAYER_49>
+ $thickness=1e-09 $X=0.5033 $Y=0.238 $X2=0.5005 $Y2=0.238
r10 1 11 0.268519 $w=5.4e-08 $l=1.45e-08 $layer=<ENCRYPTED_LAYER_49>
+ $thickness=1e-09 $X=0.486 $Y=0.238 $X2=0.5005 $Y2=0.238
r11 7 1 0.268519 $w=5.4e-08 $l=1.45e-08 $layer=<ENCRYPTED_LAYER_49>
+ $thickness=1e-09 $X=0.4715 $Y=0.238 $X2=0.486 $Y2=0.238
r12 12 7 0.0462963 $w=5.4e-08 $l=2.5e-09 $layer=<ENCRYPTED_LAYER_49>
+ $thickness=1e-09 $X=0.4686 $Y=0.238 $X2=0.4715 $Y2=0.238
.ends

.subckt PM_ADDER_M%~SUM VSS 27 16 17 41 42 12 13 11 7 1 8 2
c1 1 VSS 0.00429204f $X=0.648 $Y=0.076
c2 2 VSS 0.0043432f $X=0.648 $Y=0.238
c3 7 VSS 0.00220609f $X=0.6335 $Y=0.076
c4 8 VSS 0.00220743f $X=0.6335 $Y=0.238
c5 9 VSS 0.00332793f $X=0.837 $Y=0.058
c6 10 VSS 0.00335541f $X=0.837 $Y=0.256
c7 11 VSS 0.0166033f $X=0.648 $Y=0.058
c8 12 VSS 0.016781f $X=0.81 $Y=0.256
c9 13 VSS 0.0072275f $X=0.837 $Y=0.076
r1 42 40 0.0462963 $w=5.4e-08 $l=2.5e-09 $layer=<ENCRYPTED_LAYER_49>
+ $thickness=1e-09 $X=0.6653 $Y=0.238 $X2=0.6625 $Y2=0.238
r2 2 40 0.268519 $w=5.4e-08 $l=1.45e-08 $layer=<ENCRYPTED_LAYER_49>
+ $thickness=1e-09 $X=0.648 $Y=0.238 $X2=0.6625 $Y2=0.238
r3 8 2 0.268519 $w=5.4e-08 $l=1.45e-08 $layer=<ENCRYPTED_LAYER_49>
+ $thickness=1e-09 $X=0.6335 $Y=0.238 $X2=0.648 $Y2=0.238
r4 41 8 0.0462963 $w=5.4e-08 $l=2.5e-09 $layer=<ENCRYPTED_LAYER_49>
+ $thickness=1e-09 $X=0.6306 $Y=0.238 $X2=0.6335 $Y2=0.238
r5 2 37 19.3796 $w=1.8e-08 $l=1.8e-08 $layer=<ENCRYPTED_LAYER_7> $X=0.648
+ $Y=0.238 $X2=0.648 $Y2=0.256
r6 37 38 3.14806 $w=1.8e-08 $l=1.35e-08 $layer=M1 $thickness=3.6e-08 $X=0.648
+ $Y=0.256 $X2=0.6615 $Y2=0.256
r7 36 38 3.14806 $w=1.8e-08 $l=1.35e-08 $layer=M1 $thickness=3.6e-08 $X=0.675
+ $Y=0.256 $X2=0.6615 $Y2=0.256
r8 35 36 6.29612 $w=1.8e-08 $l=2.7e-08 $layer=M1 $thickness=3.6e-08 $X=0.702
+ $Y=0.256 $X2=0.675 $Y2=0.256
r9 34 35 6.29612 $w=1.8e-08 $l=2.7e-08 $layer=M1 $thickness=3.6e-08 $X=0.729
+ $Y=0.256 $X2=0.702 $Y2=0.256
r10 33 34 6.29612 $w=1.8e-08 $l=2.7e-08 $layer=M1 $thickness=3.6e-08 $X=0.756
+ $Y=0.256 $X2=0.729 $Y2=0.256
r11 32 33 6.29612 $w=1.8e-08 $l=2.7e-08 $layer=M1 $thickness=3.6e-08 $X=0.783
+ $Y=0.256 $X2=0.756 $Y2=0.256
r12 12 32 6.29612 $w=1.8e-08 $l=2.7e-08 $layer=M1 $thickness=3.6e-08 $X=0.81
+ $Y=0.256 $X2=0.783 $Y2=0.256
r13 10 31 2.5483 $w=1.8e-08 $l=1.8e-08 $layer=M1 $thickness=3.6e-08 $X=0.837
+ $Y=0.256 $X2=0.837 $Y2=0.238
r14 10 12 4.64701 $w=1.8e-08 $l=2.7e-08 $layer=M1 $thickness=3.6e-08 $X=0.837
+ $Y=0.256 $X2=0.81 $Y2=0.256
r15 30 31 2.91487 $w=1.8e-08 $l=1.25e-08 $layer=M1 $thickness=3.6e-08 $X=0.837
+ $Y=0.2255 $X2=0.837 $Y2=0.238
r16 29 30 7.34548 $w=1.8e-08 $l=3.15e-08 $layer=M1 $thickness=3.6e-08 $X=0.837
+ $Y=0.194 $X2=0.837 $Y2=0.2255
r17 28 29 8.21994 $w=1.8e-08 $l=3.53e-08 $layer=M1 $thickness=3.6e-08 $X=0.837
+ $Y=0.1587 $X2=0.837 $Y2=0.194
r18 27 28 1.80722 $w=1.8e-08 $l=7.7e-09 $layer=M1 $thickness=3.6e-08 $X=0.845
+ $Y=0.151 $X2=0.837 $Y2=0.1587
r19 27 26 6.9374 $w=1.8e-08 $l=2.98e-08 $layer=M1 $thickness=3.6e-08 $X=0.845
+ $Y=0.151 $X2=0.837 $Y2=0.1212
r20 25 26 7.63696 $w=1.8e-08 $l=3.27e-08 $layer=M1 $thickness=3.6e-08 $X=0.837
+ $Y=0.0885 $X2=0.837 $Y2=0.1212
r21 13 25 2.91487 $w=1.8e-08 $l=1.25e-08 $layer=M1 $thickness=3.6e-08 $X=0.837
+ $Y=0.076 $X2=0.837 $Y2=0.0885
r22 9 24 4.64701 $w=1.8e-08 $l=2.7e-08 $layer=M1 $thickness=3.6e-08 $X=0.837
+ $Y=0.058 $X2=0.81 $Y2=0.058
r23 9 13 2.5483 $w=1.8e-08 $l=1.8e-08 $layer=M1 $thickness=3.6e-08 $X=0.837
+ $Y=0.058 $X2=0.837 $Y2=0.076
r24 23 24 6.29612 $w=1.8e-08 $l=2.7e-08 $layer=M1 $thickness=3.6e-08 $X=0.783
+ $Y=0.058 $X2=0.81 $Y2=0.058
r25 22 23 6.29612 $w=1.8e-08 $l=2.7e-08 $layer=M1 $thickness=3.6e-08 $X=0.756
+ $Y=0.058 $X2=0.783 $Y2=0.058
r26 21 22 6.29612 $w=1.8e-08 $l=2.7e-08 $layer=M1 $thickness=3.6e-08 $X=0.729
+ $Y=0.058 $X2=0.756 $Y2=0.058
r27 20 21 6.29612 $w=1.8e-08 $l=2.7e-08 $layer=M1 $thickness=3.6e-08 $X=0.702
+ $Y=0.058 $X2=0.729 $Y2=0.058
r28 19 20 6.29612 $w=1.8e-08 $l=2.7e-08 $layer=M1 $thickness=3.6e-08 $X=0.675