* Design:	MULT_2bit
* Created:	"Fri Dec 9 2022"
* Vendor:	"Mentor Graphics Corporation"
* Program:	"Calibre xACT 3D"
* Version:	"v2017.4_19.14"
* Corner Name: typical_27
* Nominal Temperature: 25C
* Circuit Temperature: 27C
* 
* Integrated TICER reduction is not enabled.
* SHORT DELAY THRESHOLD: 2e-15
* Fill Mode: NG
* PEX REDUCE CC ABSOLUTE : 1
* PEX REDUCE CC RELATIVE : 0.01
* Delta transform mode : 344834

* .include "MULT_2bit.pex.netlist.pex"

* Start of included file MULT_2bit.pex.netlist.pex

.subckt PM_MULT_2bit%F<1> VSS 33 19 20 48 49 8 7 14 2 11 1 13 10 9
c1 1 VSS 0.006998f $X=0.134 $Y=0.9285
c2 2 VSS 0.00689978f $X=0.242 $Y=1.0635
c3 7 VSS 0.00348808f $X=0.1195 $Y=0.9285
c4 8 VSS 0.00353549f $X=0.2275 $Y=1.0635
c5 9 VSS 0.012844f $X=0.1205 $Y=0.902
c6 10 VSS 0.00226486f $X=0.2305 $Y=1.046
c7 11 VSS 0.00117591f $X=0.036 $Y=0.902
c8 12 VSS 0.00144901f $X=0.036 $Y=1.046
c9 13 VSS 0.00415653f $X=0.036 $Y=0.9205
c10 14 VSS 0.0108878f $X=0.0585 $Y=1.046
r1 49 47 0.0308642 $w=8.1e-08 $l=2.5e-09 $layer=<ENCRYPTED_LAYER_49>
+ $thickness=1e-09 $X=0.2593 $Y=1.0635 $X2=0.2565 $Y2=1.0635
r2 2 47 0.179012 $w=8.1e-08 $l=1.45e-08 $layer=<ENCRYPTED_LAYER_49>
+ $thickness=1e-09 $X=0.242 $Y=1.0635 $X2=0.2565 $Y2=1.0635
r3 8 2 0.179012 $w=8.1e-08 $l=1.45e-08 $layer=<ENCRYPTED_LAYER_49>
+ $thickness=1e-09 $X=0.2275 $Y=1.0635 $X2=0.242 $Y2=1.0635
r4 48 8 0.0308642 $w=8.1e-08 $l=2.5e-09 $layer=<ENCRYPTED_LAYER_49>
+ $thickness=1e-09 $X=0.2246 $Y=1.0635 $X2=0.2275 $Y2=1.0635
r5 2 44 19.3796 $w=1.8e-08 $l=1.8e-08 $layer=<ENCRYPTED_LAYER_7> $X=0.242
+ $Y=1.0635 $X2=0.242 $Y2=1.046
r6 10 44 2.68168 $w=1.8e-08 $l=1.15e-08 $layer=M1 $thickness=3.6e-08 $X=0.2305
+ $Y=1.046 $X2=0.242 $Y2=1.046
r7 41 44 19.5347 $w=1.8e-08 $l=1.8e-08 $layer=V1 $X=0.242 $Y=1.046 $X2=0.242
+ $Y2=1.046
r8 40 41 5.71315 $w=1.8e-08 $l=2.45e-08 $layer=M2 $thickness=3.6e-08 $X=0.2175
+ $Y=1.046 $X2=0.242 $Y2=1.046
r9 39 40 13.4084 $w=1.8e-08 $l=5.75e-08 $layer=M2 $thickness=3.6e-08 $X=0.16
+ $Y=1.046 $X2=0.2175 $Y2=1.046
r10 38 39 10.0272 $w=1.8e-08 $l=4.3e-08 $layer=M2 $thickness=3.6e-08 $X=0.117
+ $Y=1.046 $X2=0.16 $Y2=1.046
r11 37 38 2.3319 $w=1.8e-08 $l=1e-08 $layer=M2 $thickness=3.6e-08 $X=0.107
+ $Y=1.046 $X2=0.117 $Y2=1.046
r12 36 37 5.13017 $w=1.8e-08 $l=2.2e-08 $layer=M2 $thickness=3.6e-08 $X=0.085
+ $Y=1.046 $X2=0.107 $Y2=1.046
r13 14 36 6.17953 $w=1.8e-08 $l=2.65e-08 $layer=M2 $thickness=3.6e-08 $X=0.0585
+ $Y=1.046 $X2=0.085 $Y2=1.046
r14 12 35 3.59766 $w=1.8e-08 $l=2.25e-08 $layer=M2 $thickness=3.6e-08 $X=0.036
+ $Y=1.046 $X2=0.036 $Y2=1.0235
r15 12 14 3.59766 $w=1.8e-08 $l=2.25e-08 $layer=M2 $thickness=3.6e-08 $X=0.036
+ $Y=1.046 $X2=0.0585 $Y2=1.046
r16 34 35 6.8208 $w=1.8e-08 $l=2.93e-08 $layer=M2 $thickness=3.6e-08 $X=0.036
+ $Y=0.9942 $X2=0.036 $Y2=1.0235
r17 33 34 3.78933 $w=1.8e-08 $l=1.62e-08 $layer=M2 $thickness=3.6e-08 $X=0.036
+ $Y=0.978 $X2=0.036 $Y2=0.9942
r18 33 32 3.55614 $w=1.8e-08 $l=1.53e-08 $layer=M2 $thickness=3.6e-08 $X=0.036
+ $Y=0.978 $X2=0.036 $Y2=0.9627
r19 31 32 5.53826 $w=1.8e-08 $l=2.37e-08 $layer=M2 $thickness=3.6e-08 $X=0.036
+ $Y=0.939 $X2=0.036 $Y2=0.9627
r20 13 31 4.31401 $w=1.8e-08 $l=1.85e-08 $layer=M2 $thickness=3.6e-08 $X=0.036
+ $Y=0.9205 $X2=0.036 $Y2=0.939
r21 28 29 2.2153 $w=1.8e-08 $l=9.5e-09 $layer=M2 $thickness=3.6e-08 $X=0.0455
+ $Y=0.902 $X2=0.055 $Y2=0.902
r22 11 28 1.03499 $w=1.8e-08 $l=9.5e-09 $layer=M2 $thickness=3.6e-08 $X=0.036
+ $Y=0.902 $X2=0.0455 $Y2=0.902
r23 11 13 3.1337 $w=1.8e-08 $l=1.85e-08 $layer=M2 $thickness=3.6e-08 $X=0.036
+ $Y=0.902 $X2=0.036 $Y2=0.9205
r24 25 26 5.01358 $w=1.8e-08 $l=2.15e-08 $layer=M1 $thickness=3.6e-08 $X=0.055
+ $Y=0.902 $X2=0.0765 $Y2=0.902
r25 25 29 19.5347 $w=1.8e-08 $l=1.8e-08 $layer=V1 $X=0.055 $Y=0.902 $X2=0.055
+ $Y2=0.902
r26 23 26 3.96423 $w=1.8e-08 $l=1.7e-08 $layer=M1 $thickness=3.6e-08 $X=0.0935
+ $Y=0.902 $X2=0.0765 $Y2=0.902
r27 22 23 3.14806 $w=1.8e-08 $l=1.35e-08 $layer=M1 $thickness=3.6e-08 $X=0.107
+ $Y=0.902 $X2=0.0935 $Y2=0.902
r28 9 21 3.14806 $w=1.8e-08 $l=1.35e-08 $layer=M1 $thickness=3.6e-08 $X=0.1205
+ $Y=0.902 $X2=0.134 $Y2=0.902
r29 9 22 3.14806 $w=1.8e-08 $l=1.35e-08 $layer=M1 $thickness=3.6e-08 $X=0.1205
+ $Y=0.902 $X2=0.107 $Y2=0.902
r30 1 21 19.3796 $w=1.8e-08 $l=1.8e-08 $layer=<ENCRYPTED_LAYER_7> $X=0.134
+ $Y=0.9285 $X2=0.134 $Y2=0.902
r31 20 18 0.0308642 $w=8.1e-08 $l=2.5e-09 $layer=<ENCRYPTED_LAYER_48>
+ $thickness=1e-09 $X=0.1513 $Y=0.9285 $X2=0.1485 $Y2=0.9285
r32 1 18 0.179012 $w=8.1e-08 $l=1.45e-08 $layer=<ENCRYPTED_LAYER_48>
+ $thickness=1e-09 $X=0.134 $Y=0.9285 $X2=0.1485 $Y2=0.9285
r33 7 1 0.179012 $w=8.1e-08 $l=1.45e-08 $layer=<ENCRYPTED_LAYER_48>
+ $thickness=1e-09 $X=0.1195 $Y=0.9285 $X2=0.134 $Y2=0.9285
r34 19 7 0.0308642 $w=8.1e-08 $l=2.5e-09 $layer=<ENCRYPTED_LAYER_48>
+ $thickness=1e-09 $X=0.1166 $Y=0.9285 $X2=0.1195 $Y2=0.9285
.ends

.subckt PM_MULT_2bit%XI3/XI2/NET1 VSS 32 66 73 76 13 26 17 6 23 25 5 2 14 16 18
+ 27 1 24 15 21 11 12 22 19
c1 1 VSS 0.00599682f $X=0.107 $Y=0.996
c2 2 VSS 0.00157694f $X=0.269 $Y=0.996
c3 5 VSS 0.00995385f $X=0.404 $Y=0.9285
c4 6 VSS 0.0101994f $X=0.404 $Y=1.0635
c5 11 VSS 0.0578169f $X=0.107 $Y=0.8855
c6 12 VSS 0.0195105f $X=0.269 $Y=0.996
c7 13 VSS 0.0406615f $X=0.406 $Y=0.9285
c8 14 VSS 0.039985f $X=0.406 $Y=1.0635
c9 15 VSS 0.00433248f $X=0.107 $Y=0.9845
c10 16 VSS 0.000859578f $X=0.269 $Y=0.9845
c11 17 VSS 0.00442004f $X=0.3925 $Y=0.911
c12 18 VSS 0.00516406f $X=0.3925 $Y=1.086
c13 19 VSS 0.00072693f $X=0.107 $Y=0.957
c14 20 VSS 0.00090273f $X=0.404 $Y=0.957
c15 21 VSS 0.000902511f $X=0.404 $Y=0.996
c16 22 VSS 0.0010139f $X=0.107 $Y=0.996
c17 23 VSS 0.00268536f $X=0.1205 $Y=0.957
c18 24 VSS 0.00107091f $X=0.3525 $Y=0.996
c19 25 VSS 0.00391251f $X=0.404 $Y=0.939
c20 26 VSS 0.000777391f $X=0.404 $Y=0.9765
c21 27 VSS 0.00529959f $X=0.404 $Y=1.021
r1 76 75 0.0308642 $w=8.1e-08 $l=2.5e-09 $layer=<ENCRYPTED_LAYER_49>
+ $thickness=1e-09 $X=0.4213 $Y=1.0635 $X2=0.4185 $Y2=1.0635
r2 14 75 0.154321 $w=8.1e-08 $l=1.25e-08 $layer=<ENCRYPTED_LAYER_49>
+ $thickness=1e-09 $X=0.406 $Y=1.0635 $X2=0.4185 $Y2=1.0635
r3 73 72 16.4967 $w=2e-08 $l=4.85e-08 $layer=<ENCRYPTED_LAYER_23>
+ $thickness=5.6e-08 $X=0.269 $Y=1.0635 $X2=0.269 $Y2=1.015
r4 12 72 6.6497 $w=2e-08 $l=1.9e-08 $layer=<ENCRYPTED_LAYER_23>
+ $thickness=5.6e-08 $X=0.269 $Y=0.996 $X2=0.269 $Y2=1.015
r5 6 69 19.3796 $w=1.8e-08 $l=1.8e-08 $layer=<ENCRYPTED_LAYER_7> $X=0.404
+ $Y=1.0635 $X2=0.404 $Y2=1.086
r6 2 67 19.3796 $w=1.8e-08 $l=1.8e-08 $layer=<ENCRYPTED_LAYER_4> $X=0.269
+ $Y=0.996 $X2=0.269 $Y2=0.996
r7 2 12 10.4265 $w=2.1e-08 $layer=LIG $thickness=5.2e-08 $X=0.269 $Y=0.996
+ $X2=0.269 $Y2=0.996
r8 18 69 2.68168 $w=1.8e-08 $l=1.15e-08 $layer=M1 $thickness=3.6e-08 $X=0.3925
+ $Y=1.086 $X2=0.404 $Y2=1.086
r9 16 67 2.68168 $w=1.8e-08 $l=1.15e-08 $layer=M1 $thickness=3.6e-08 $X=0.269
+ $Y=0.9845 $X2=0.269 $Y2=0.996
r10 66 65 0.0308642 $w=8.1e-08 $l=2.5e-09 $layer=<ENCRYPTED_LAYER_48>
+ $thickness=1e-09 $X=0.4213 $Y=0.9285 $X2=0.4185 $Y2=0.9285
r11 13 65 0.154321 $w=8.1e-08 $l=1.25e-08 $layer=<ENCRYPTED_LAYER_48>
+ $thickness=1e-09 $X=0.406 $Y=0.9285 $X2=0.4185 $Y2=0.9285
r12 62 69 19.5347 $w=1.8e-08 $l=1.8e-08 $layer=V1 $X=0.404 $Y=1.0885 $X2=0.404
+ $Y2=1.086
r13 61 62 2.09871 $w=1.8e-08 $l=9e-09 $layer=M2 $thickness=3.6e-08 $X=0.404
+ $Y=1.0795 $X2=0.404 $Y2=1.0885
r14 60 61 2.09871 $w=1.8e-08 $l=9e-09 $layer=M2 $thickness=3.6e-08 $X=0.404
+ $Y=1.0705 $X2=0.404 $Y2=1.0795
r15 59 60 2.56509 $w=1.8e-08 $l=1.1e-08 $layer=M2 $thickness=3.6e-08 $X=0.404
+ $Y=1.0595 $X2=0.404 $Y2=1.0705
r16 58 59 3.14806 $w=1.8e-08 $l=1.35e-08 $layer=M2 $thickness=3.6e-08 $X=0.404
+ $Y=1.046 $X2=0.404 $Y2=1.0595
r17 27 58 5.82974 $w=1.8e-08 $l=2.5e-08 $layer=M2 $thickness=3.6e-08 $X=0.404
+ $Y=1.021 $X2=0.404 $Y2=1.046
r18 55 56 2.56509 $w=1.8e-08 $l=1.1e-08 $layer=M2 $thickness=3.6e-08 $X=0.269
+ $Y=0.996 $X2=0.28 $Y2=0.996
r19 55 67 19.5347 $w=1.8e-08 $l=1.8e-08 $layer=V1 $X=0.269 $Y=0.996 $X2=0.269
+ $Y2=0.996
r20 53 56 3.73104 $w=1.8e-08 $l=1.6e-08 $layer=M2 $thickness=3.6e-08 $X=0.296
+ $Y=0.996 $X2=0.28 $Y2=0.996
r21 24 53 13.1752 $w=1.8e-08 $l=5.65e-08 $layer=M2 $thickness=3.6e-08 $X=0.3525
+ $Y=0.996 $X2=0.296 $Y2=0.996
r22 5 51 19.3796 $w=1.8e-08 $l=1.8e-08 $layer=<ENCRYPTED_LAYER_7> $X=0.404
+ $Y=0.9285 $X2=0.404 $Y2=0.911
r23 21 26 3.36689 $w=1.8e-08 $l=1.95e-08 $layer=M2 $thickness=3.6e-08 $X=0.404
+ $Y=0.996 $X2=0.404 $Y2=0.9765
r24 21 24 10.829 $w=1.8e-08 $l=5.15e-08 $layer=M2 $thickness=3.6e-08 $X=0.404
+ $Y=0.996 $X2=0.3525 $Y2=0.996
r25 21 27 4.64944 $w=1.8e-08 $l=2.5e-08 $layer=M2 $thickness=3.6e-08 $X=0.404
+ $Y=0.996 $X2=0.404 $Y2=1.021
r26 17 51 2.68168 $w=1.8e-08 $l=1.15e-08 $layer=M1 $thickness=3.6e-08 $X=0.3925
+ $Y=0.911 $X2=0.404 $Y2=0.911
r27 50 51 19.5347 $w=1.8e-08 $l=1.8e-08 $layer=V1 $X=0.404 $Y=0.907 $X2=0.404
+ $Y2=0.911
r28 47 48 2.09871 $w=1.8e-08 $l=9e-09 $layer=M2 $thickness=3.6e-08 $X=0.404
+ $Y=0.916 $X2=0.404 $Y2=0.925
r29 47 50 2.09871 $w=1.8e-08 $l=9e-09 $layer=M2 $thickness=3.6e-08 $X=0.404
+ $Y=0.916 $X2=0.404 $Y2=0.907
r30 25 48 3.26466 $w=1.8e-08 $l=1.4e-08 $layer=M2 $thickness=3.6e-08 $X=0.404
+ $Y=0.939 $X2=0.404 $Y2=0.925
r31 20 46 17.2417 $w=1.8e-08 $l=7.9e-08 $layer=M2 $thickness=3.6e-08 $X=0.404
+ $Y=0.957 $X2=0.325 $Y2=0.957
r32 20 25 3.01711 $w=1.8e-08 $l=1.8e-08 $layer=M2 $thickness=3.6e-08 $X=0.404
+ $Y=0.957 $X2=0.404 $Y2=0.939
r33 20 26 3.36689 $w=1.8e-08 $l=1.95e-08 $layer=M2 $thickness=3.6e-08 $X=0.404
+ $Y=0.957 $X2=0.404 $Y2=0.9765
r34 45 46 18.3054 $w=1.8e-08 $l=7.85e-08 $layer=M2 $thickness=3.6e-08 $X=0.2465
+ $Y=0.957 $X2=0.325 $Y2=0.957
r35 44 45 6.64591 $w=1.8e-08 $l=2.85e-08 $layer=M2 $thickness=3.6e-08 $X=0.218
+ $Y=0.957 $X2=0.2465 $Y2=0.957
r36 43 44 6.7625 $w=1.8e-08 $l=2.9e-08 $layer=M2 $thickness=3.6e-08 $X=0.189
+ $Y=0.957 $X2=0.218 $Y2=0.957
r37 42 43 8.51143 $w=1.8e-08 $l=3.65e-08 $layer=M2 $thickness=3.6e-08 $X=0.1525
+ $Y=0.957 $X2=0.189 $Y2=0.957
r38 23 42 7.46207 $w=1.8e-08 $l=3.2e-08 $layer=M2 $thickness=3.6e-08 $X=0.1205
+ $Y=0.957 $X2=0.1525 $Y2=0.957
r39 19 40 2.89809 $w=1.8e-08 $l=1.95e-08 $layer=M2 $thickness=3.6e-08 $X=0.107
+ $Y=0.957 $X2=0.107 $Y2=0.9765
r40 19 23 1.49895 $w=1.8e-08 $l=1.35e-08 $layer=M2 $thickness=3.6e-08 $X=0.107
+ $Y=0.957 $X2=0.1205 $Y2=0.957
r41 22 38 19.5347 $w=1.8e-08 $l=1.8e-08 $layer=V1 $X=0.107 $Y=0.996 $X2=0.107
+ $Y2=0.996
r42 22 40 4.5472 $w=1.8e-08 $l=1.95e-08 $layer=M2 $thickness=3.6e-08 $X=0.107
+ $Y=0.996 $X2=0.107 $Y2=0.9765
r43 15 38 2.68168 $w=1.8e-08 $l=1.15e-08 $layer=M1 $thickness=3.6e-08 $X=0.107
+ $Y=0.9845 $X2=0.107 $Y2=0.996
r44 1 35 10.4265 $w=2.1e-08 $layer=LIG $thickness=5.2e-08 $X=0.107 $Y=0.996
+ $X2=0.107 $Y2=0.996
r45 1 38 19.3796 $w=1.8e-08 $l=1.8e-08 $layer=<ENCRYPTED_LAYER_4> $X=0.107
+ $Y=0.996 $X2=0.107 $Y2=0.996
r46 34 35 5.79936 $w=2e-08 $l=1.65e-08 $layer=<ENCRYPTED_LAYER_23>
+ $thickness=5.6e-08 $X=0.107 $Y=0.9795 $X2=0.107 $Y2=0.996
r47 33 34 2.7211 $w=2e-08 $l=8e-09 $layer=<ENCRYPTED_LAYER_23>
+ $thickness=5.6e-08 $X=0.107 $Y=0.9715 $X2=0.107 $Y2=0.9795
r48 32 33 14.6259 $w=2e-08 $l=4.3e-08 $layer=<ENCRYPTED_LAYER_23>
+ $thickness=5.6e-08 $X=0.107 $Y=0.9285 $X2=0.107 $Y2=0.9715
r49 32 11 14.6259 $w=2e-08 $l=4.3e-08 $layer=<ENCRYPTED_LAYER_23>
+ $thickness=5.6e-08 $X=0.107 $Y=0.9285 $X2=0.107 $Y2=0.8855
r50 6 14 1e-05 $l=2e-09 $X=0.404 $Y=1.0635 $X2=0.406 $Y2=1.0635
r51 5 13 1e-05 $l=2e-09 $X=0.404 $Y=0.9285 $X2=0.406 $Y2=0.9285
.ends

.subckt PM_MULT_2bit%XI2/XI1/NET1 VSS 32 63 69 76 12 11 21 5 27 15 18 2 22 14
+ 20 16 23 26 6 1 13 24 17 25 19
c1 1 VSS 0.00176128f $X=0.755 $Y=0.726
c2 2 VSS 0.00165315f $X=0.917 $Y=0.726
c3 5 VSS 0.00784833f $X=0.62 $Y=0.6585
c4 6 VSS 0.010104f $X=0.62 $Y=0.7935
c5 11 VSS 0.0222754f $X=0.755 $Y=0.602
c6 12 VSS 0.0208391f $X=0.917 $Y=0.726
c7 13 VSS 0.0404517f $X=0.6055 $Y=0.7935
c8 14 VSS 0.0396979f $X=0.6055 $Y=0.6585
c9 15 VSS 0.00261704f $X=0.6085 $Y=0.636
c10 16 VSS 0.00449165f $X=0.6085 $Y=0.811
c11 17 VSS 0.000919534f $X=0.755 $Y=0.7145
c12 18 VSS 0.000916872f $X=0.917 $Y=0.7145
c13 19 VSS 0.000649811f $X=0.62 $Y=0.726
c14 20 VSS 0.000765087f $X=0.62 $Y=0.765
c15 21 VSS 0.000503682f $X=0.917 $Y=0.765
c16 22 VSS 0.00324691f $X=0.62 $Y=0.699
c17 23 VSS 0.000680343f $X=0.62 $Y=0.7455
c18 24 VSS 0.00323064f $X=0.62 $Y=0.783
c19 25 VSS 0.000820102f $X=0.7415 $Y=0.726
c20 26 VSS 0.00217294f $X=0.699 $Y=0.765
c21 27 VSS 0.000546519f $X=0.917 $Y=0.7455
r1 76 75 14.6259 $w=2e-08 $l=4.3e-08 $layer=<ENCRYPTED_LAYER_23>
+ $thickness=5.6e-08 $X=0.917 $Y=0.7935 $X2=0.917 $Y2=0.7505
r2 74 75 2.7211 $w=2e-08 $l=8e-09 $layer=<ENCRYPTED_LAYER_23>
+ $thickness=5.6e-08 $X=0.917 $Y=0.7425 $X2=0.917 $Y2=0.7505
r3 12 74 5.79936 $w=2e-08 $l=1.65e-08 $layer=<ENCRYPTED_LAYER_23>
+ $thickness=5.6e-08 $X=0.917 $Y=0.726 $X2=0.917 $Y2=0.7425
r4 2 70 19.3796 $w=1.8e-08 $l=1.8e-08 $layer=<ENCRYPTED_LAYER_4> $X=0.917
+ $Y=0.726 $X2=0.917 $Y2=0.726
r5 2 12 10.4265 $w=2.1e-08 $layer=LIG $thickness=5.2e-08 $X=0.917 $Y=0.726
+ $X2=0.917 $Y2=0.726
r6 18 70 2.68168 $w=1.8e-08 $l=1.15e-08 $layer=M1 $thickness=3.6e-08 $X=0.917
+ $Y=0.7145 $X2=0.917 $Y2=0.726
r7 13 6 0.154321 $w=8.1e-08 $l=1.25e-08 $layer=<ENCRYPTED_LAYER_48>
+ $thickness=1e-09 $X=0.6055 $Y=0.7935 $X2=0.62 $Y2=0.7935
r8 69 13 0.0308642 $w=8.1e-08 $l=2.5e-09 $layer=<ENCRYPTED_LAYER_48>
+ $thickness=1e-09 $X=0.6026 $Y=0.7935 $X2=0.6055 $Y2=0.7935
r9 66 70 19.5347 $w=1.8e-08 $l=1.8e-08 $layer=V1 $X=0.917 $Y=0.726 $X2=0.917
+ $Y2=0.726
r10 27 66 4.5472 $w=1.8e-08 $l=1.95e-08 $layer=M2 $thickness=3.6e-08 $X=0.917
+ $Y=0.7455 $X2=0.917 $Y2=0.726
r11 6 64 19.3796 $w=1.8e-08 $l=1.8e-08 $layer=<ENCRYPTED_LAYER_7> $X=0.62
+ $Y=0.7935 $X2=0.62 $Y2=0.811
r12 21 61 3.59766 $w=1.8e-08 $l=2.25e-08 $layer=M2 $thickness=3.6e-08 $X=0.917
+ $Y=0.765 $X2=0.8945 $Y2=0.765
r13 21 27 2.89809 $w=1.8e-08 $l=1.95e-08 $layer=M2 $thickness=3.6e-08 $X=0.917
+ $Y=0.765 $X2=0.917 $Y2=0.7455
r14 16 64 2.68168 $w=1.8e-08 $l=1.15e-08 $layer=M1 $thickness=3.6e-08 $X=0.6085
+ $Y=0.811 $X2=0.62 $Y2=0.811
r15 14 5 0.154321 $w=8.1e-08 $l=1.25e-08 $layer=<ENCRYPTED_LAYER_49>
+ $thickness=1e-09 $X=0.6055 $Y=0.6585 $X2=0.62 $Y2=0.6585
r16 63 14 0.0308642 $w=8.1e-08 $l=2.5e-09 $layer=<ENCRYPTED_LAYER_49>
+ $thickness=1e-09 $X=0.6026 $Y=0.6585 $X2=0.6055 $Y2=0.6585
r17 60 61 7.46207 $w=1.8e-08 $l=3.2e-08 $layer=M2 $thickness=3.6e-08 $X=0.8625
+ $Y=0.765 $X2=0.8945 $Y2=0.765
r18 59 60 6.41272 $w=1.8e-08 $l=2.75e-08 $layer=M2 $thickness=3.6e-08 $X=0.835
+ $Y=0.765 $X2=0.8625 $Y2=0.765
r19 58 59 6.7625 $w=1.8e-08 $l=2.9e-08 $layer=M2 $thickness=3.6e-08 $X=0.806
+ $Y=0.765 $X2=0.835 $Y2=0.765
r20 57 58 6.64591 $w=1.8e-08 $l=2.85e-08 $layer=M2 $thickness=3.6e-08 $X=0.7775
+ $Y=0.765 $X2=0.806 $Y2=0.765
r21 26 57 18.3054 $w=1.8e-08 $l=7.85e-08 $layer=M2 $thickness=3.6e-08 $X=0.699
+ $Y=0.765 $X2=0.7775 $Y2=0.765
r22 55 64 19.5347 $w=1.8e-08 $l=1.8e-08 $layer=V1 $X=0.62 $Y=0.815 $X2=0.62
+ $Y2=0.811
r23 54 55 2.09871 $w=1.8e-08 $l=9e-09 $layer=M2 $thickness=3.6e-08 $X=0.62
+ $Y=0.806 $X2=0.62 $Y2=0.815
r24 53 54 2.09871 $w=1.8e-08 $l=9e-09 $layer=M2 $thickness=3.6e-08 $X=0.62
+ $Y=0.797 $X2=0.62 $Y2=0.806
r25 24 53 3.26466 $w=1.8e-08 $l=1.4e-08 $layer=M2 $thickness=3.6e-08 $X=0.62
+ $Y=0.783 $X2=0.62 $Y2=0.797
r26 5 51 19.3796 $w=1.8e-08 $l=1.8e-08 $layer=<ENCRYPTED_LAYER_7> $X=0.62
+ $Y=0.6585 $X2=0.62 $Y2=0.636
r27 20 23 3.36689 $w=1.8e-08 $l=1.95e-08 $layer=M2 $thickness=3.6e-08 $X=0.62
+ $Y=0.765 $X2=0.62 $Y2=0.7455
r28 20 24 3.01711 $w=1.8e-08 $l=1.8e-08 $layer=M2 $thickness=3.6e-08 $X=0.62
+ $Y=0.765 $X2=0.62 $Y2=0.783
r29 20 26 17.2417 $w=1.8e-08 $l=7.9e-08 $layer=M2 $thickness=3.6e-08 $X=0.62
+ $Y=0.765 $X2=0.699 $Y2=0.765
r30 15 51 2.68168 $w=1.8e-08 $l=1.15e-08 $layer=M1 $thickness=3.6e-08 $X=0.6085
+ $Y=0.636 $X2=0.62 $Y2=0.636
r31 49 50 2.79828 $w=1.8e-08 $l=1.2e-08 $layer=M2 $thickness=3.6e-08 $X=0.62
+ $Y=0.636 $X2=0.62 $Y2=0.648
r32 49 51 19.5347 $w=1.8e-08 $l=1.8e-08 $layer=V1 $X=0.62 $Y=0.636 $X2=0.62
+ $Y2=0.636
r33 47 50 2.09871 $w=1.8e-08 $l=9e-09 $layer=M2 $thickness=3.6e-08 $X=0.62
+ $Y=0.657 $X2=0.62 $Y2=0.648
r34 46 47 3.49785 $w=1.8e-08 $l=1.5e-08 $layer=M2 $thickness=3.6e-08 $X=0.62
+ $Y=0.672 $X2=0.62 $Y2=0.657
r35 22 46 6.29612 $w=1.8e-08 $l=2.7e-08 $layer=M2 $thickness=3.6e-08 $X=0.62
+ $Y=0.699 $X2=0.62 $Y2=0.672
r36 19 44 4.64944 $w=1.8e-08 $l=2.5e-08 $layer=M2 $thickness=3.6e-08 $X=0.62
+ $Y=0.726 $X2=0.645 $Y2=0.726
r37 19 22 5.11582 $w=1.8e-08 $l=2.7e-08 $layer=M2 $thickness=3.6e-08 $X=0.62
+ $Y=0.726 $X2=0.62 $Y2=0.699
r38 19 23 3.36689 $w=1.8e-08 $l=1.95e-08 $layer=M2 $thickness=3.6e-08 $X=0.62
+ $Y=0.726 $X2=0.62 $Y2=0.7455
r39 43 44 5.82974 $w=1.8e-08 $l=2.5e-08 $layer=M2 $thickness=3.6e-08 $X=0.67
+ $Y=0.726 $X2=0.645 $Y2=0.726
r40 42 43 6.17953 $w=1.8e-08 $l=2.65e-08 $layer=M2 $thickness=3.6e-08 $X=0.6965
+ $Y=0.726 $X2=0.67 $Y2=0.726
r41 41 42 4.6638 $w=1.8e-08 $l=2e-08 $layer=M2 $thickness=3.6e-08 $X=0.7165
+ $Y=0.726 $X2=0.6965 $Y2=0.726
r42 40 41 2.68168 $w=1.8e-08 $l=1.15e-08 $layer=M2 $thickness=3.6e-08 $X=0.728
+ $Y=0.726 $X2=0.7165 $Y2=0.726
r43 25 38 3.14806 $w=1.8e-08 $l=1.35e-08 $layer=M2 $thickness=3.6e-08 $X=0.7415
+ $Y=0.726 $X2=0.755 $Y2=0.726
r44 25 40 3.14806 $w=1.8e-08 $l=1.35e-08 $layer=M2 $thickness=3.6e-08 $X=0.7415
+ $Y=0.726 $X2=0.728 $Y2=0.726
r45 36 38 19.5347 $w=1.8e-08 $l=1.8e-08 $layer=V1 $X=0.755 $Y=0.726 $X2=0.755
+ $Y2=0.726
r46 17 36 2.68168 $w=1.8e-08 $l=1.15e-08 $layer=M1 $thickness=3.6e-08 $X=0.755
+ $Y=0.7145 $X2=0.755 $Y2=0.726
r47 1 34 10.4265 $w=2.1e-08 $layer=LIG $thickness=5.2e-08 $X=0.755 $Y=0.726
+ $X2=0.755 $Y2=0.726
r48 1 36 19.3796 $w=1.8e-08 $l=1.8e-08 $layer=<ENCRYPTED_LAYER_4> $X=0.755
+ $Y=0.726 $X2=0.755 $Y2=0.726
r49 33 34 6.6497 $w=2e-08 $l=1.9e-08 $layer=<ENCRYPTED_LAYER_23>
+ $thickness=5.6e-08 $X=0.755 $Y=0.707 $X2=0.755 $Y2=0.726
r50 32 33 16.4967 $w=2e-08 $l=4.85e-08 $layer=<ENCRYPTED_LAYER_23>
+ $thickness=5.6e-08 $X=0.755 $Y=0.6585 $X2=0.755 $Y2=0.707
r51 32 11 19.2178 $w=2e-08 $l=5.65e-08 $layer=<ENCRYPTED_LAYER_23>
+ $thickness=5.6e-08 $X=0.755 $Y=0.6585 $X2=0.755 $Y2=0.602
.ends

.subckt PM_MULT_2bit%B<0> VSS 74 50 56 107 111 117 130 139 145 20 33 38 24 23
+ 34 19 2 15 36 40 39 3 21 22 1 37 35 13 14 49 31 28 44 26 48 32 5 16 46 43 42
+ 4 29 30 6 45 47 18 17
c1 1 VSS 0.00486664f $X=0.161 $Y=0.996
c2 2 VSS 0.00400003f $X=0.215 $Y=0.996
c3 3 VSS 0.00664075f $X=0.431 $Y=0.996
c4 4 VSS 0.00664107f $X=0.593 $Y=0.996
c5 5 VSS 0.00400924f $X=0.809 $Y=0.996
c6 6 VSS 0.00484309f $X=0.863 $Y=0.996
c7 13 VSS 0.0468868f $X=0.161 $Y=0.996
c8 14 VSS 0.0458221f $X=0.215 $Y=0.996
c9 15 VSS 0.0880215f $X=0.431 $Y=0.8855
c10 16 VSS 0.0880764f $X=0.593 $Y=0.996
c11 17 VSS 0.0458358f $X=0.809 $Y=0.996
c12 18 VSS 0.0468493f $X=0.863 $Y=0.996
c13 19 VSS 0.00121258f $X=0.161 $Y=0.9395
c14 20 VSS 0.00112742f $X=0.218 $Y=0.948
c15 21 VSS 0.00191993f $X=0.323 $Y=0.948
c16 22 VSS 0.00110492f $X=0.323 $Y=0.996
c17 23 VSS 0.00775202f $X=0.485 $Y=0.897
c18 24 VSS 0.00762816f $X=0.485 $Y=1.095
c19 25 VSS 0.00138765f $X=0.485 $Y=0.996
c20 26 VSS 0.00769323f $X=0.539 $Y=0.897
c21 27 VSS 0.00138753f $X=0.539 $Y=0.996
c22 28 VSS 0.00753415f $X=0.539 $Y=1.095
c23 29 VSS 0.00192415f $X=0.701 $Y=0.948
c24 30 VSS 0.00110056f $X=0.701 $Y=0.996
c25 31 VSS 0.00105607f $X=0.809 $Y=0.948
c26 32 VSS 0.00121408f $X=0.863 $Y=0.9395
c27 33 VSS 0.00178799f $X=0.161 $Y=0.9575
c28 34 VSS 0.0010651f $X=0.1905 $Y=0.948
c29 35 VSS 0.00135657f $X=0.215 $Y=0.9695
c30 36 VSS 0.00323026f $X=0.312 $Y=0.948
c31 37 VSS 0.00136124f $X=0.323 $Y=0.9845
c32 38 VSS 0.00371519f $X=0.404 $Y=0.996
c33 39 VSS 0.00534037f $X=0.485 $Y=0.963
c34 40 VSS 0.00539933f $X=0.485 $Y=1.0075
c35 41 VSS 0.00241496f $X=0.5017 $Y=0.996
c36 42 VSS 0.00534037f $X=0.539 $Y=0.963
c37 43 VSS 0.00539933f $X=0.539 $Y=1.0075
c38 44 VSS 0.00365374f $X=0.5575 $Y=0.996
c39 45 VSS 0.00135918f $X=0.701 $Y=0.9845
c40 46 VSS 0.00301957f $X=0.712 $Y=0.948
c41 47 VSS 0.00136479f $X=0.809 $Y=0.9695
c42 48 VSS 0.00103249f $X=0.834 $Y=0.948
c43 49 VSS 0.00177685f $X=0.863 $Y=0.9575
r1 145 146 16.4967 $w=2e-08 $l=4.85e-08 $layer=<ENCRYPTED_LAYER_23>
+ $thickness=5.6e-08 $X=0.863 $Y=0.9285 $X2=0.863 $Y2=0.977
r2 18 146 6.6497 $w=2e-08 $l=1.9e-08 $layer=<ENCRYPTED_LAYER_23>
+ $thickness=5.6e-08 $X=0.863 $Y=0.996 $X2=0.863 $Y2=0.977
r3 6 143 19.3796 $w=1.8e-08 $l=1.8e-08 $layer=<ENCRYPTED_LAYER_4> $X=0.863
+ $Y=0.996 $X2=0.863 $Y2=0.996
r4 6 18 10.4265 $w=2.1e-08 $layer=LIG $thickness=5.2e-08 $X=0.863 $Y=0.996
+ $X2=0.863 $Y2=0.996
r5 142 143 2.68168 $w=1.8e-08 $l=1.15e-08 $layer=M1 $thickness=3.6e-08 $X=0.863
+ $Y=0.9845 $X2=0.863 $Y2=0.996
r6 141 142 3.38125 $w=1.8e-08 $l=1.45e-08 $layer=M1 $thickness=3.6e-08 $X=0.863
+ $Y=0.97 $X2=0.863 $Y2=0.9845
r7 49 136 0.983973 $w=1.8e-08 $l=9e-09 $layer=M1 $thickness=3.6e-08 $X=0.863
+ $Y=0.9575 $X2=0.863 $Y2=0.9485
r8 49 141 2.91487 $w=1.8e-08 $l=1.25e-08 $layer=M1 $thickness=3.6e-08 $X=0.863
+ $Y=0.9575 $X2=0.863 $Y2=0.97
r9 139 138 16.4967 $w=2e-08 $l=4.85e-08 $layer=<ENCRYPTED_LAYER_23>
+ $thickness=5.6e-08 $X=0.809 $Y=1.0635 $X2=0.809 $Y2=1.015
r10 17 138 6.6497 $w=2e-08 $l=1.9e-08 $layer=<ENCRYPTED_LAYER_23>
+ $thickness=5.6e-08 $X=0.809 $Y=0.996 $X2=0.809 $Y2=1.015
r11 32 135 0.517402 $w=1.8e-08 $l=1.39014e-08 $layer=M1 $thickness=3.6e-08
+ $X=0.863 $Y=0.9395 $X2=0.852 $Y2=0.948
r12 32 136 0.9184 $w=1.8e-08 $l=9e-09 $layer=M1 $thickness=3.6e-08 $X=0.863
+ $Y=0.9395 $X2=0.863 $Y2=0.9485
r13 5 134 19.3796 $w=1.8e-08 $l=1.8e-08 $layer=<ENCRYPTED_LAYER_4> $X=0.809
+ $Y=0.996 $X2=0.809 $Y2=0.996
r14 5 17 10.4265 $w=2.1e-08 $layer=LIG $thickness=5.2e-08 $X=0.809 $Y=0.996
+ $X2=0.809 $Y2=0.996
r15 48 135 4.19742 $w=1.8e-08 $l=1.8e-08 $layer=M1 $thickness=3.6e-08 $X=0.834
+ $Y=0.948 $X2=0.852 $Y2=0.948
r16 133 134 2.68168 $w=1.8e-08 $l=1.15e-08 $layer=M1 $thickness=3.6e-08
+ $X=0.809 $Y=0.9845 $X2=0.809 $Y2=0.996
r17 47 133 3.49785 $w=1.8e-08 $l=1.5e-08 $layer=M1 $thickness=3.6e-08 $X=0.809
+ $Y=0.9695 $X2=0.809 $Y2=0.9845
r18 130 131 16.4967 $w=2e-08 $l=4.85e-08 $layer=<ENCRYPTED_LAYER_23>
+ $thickness=5.6e-08 $X=0.161 $Y=0.9285 $X2=0.161 $Y2=0.977
r19 13 131 6.6497 $w=2e-08 $l=1.9e-08 $layer=<ENCRYPTED_LAYER_23>
+ $thickness=5.6e-08 $X=0.161 $Y=0.996 $X2=0.161 $Y2=0.977
r20 31 128 1.03499 $w=1.8e-08 $l=9.5e-09 $layer=M1 $thickness=3.6e-08 $X=0.809
+ $Y=0.948 $X2=0.7995 $Y2=0.948
r21 31 47 3.83327 $w=1.8e-08 $l=2.15e-08 $layer=M1 $thickness=3.6e-08 $X=0.809
+ $Y=0.948 $X2=0.809 $Y2=0.9695
r22 31 48 4.64944 $w=1.8e-08 $l=2.5e-08 $layer=M1 $thickness=3.6e-08 $X=0.809
+ $Y=0.948 $X2=0.834 $Y2=0.948
r23 1 121 19.3796 $w=1.8e-08 $l=1.8e-08 $layer=<ENCRYPTED_LAYER_4> $X=0.161
+ $Y=0.996 $X2=0.161 $Y2=0.996
r24 1 13 10.4265 $w=2.1e-08 $layer=LIG $thickness=5.2e-08 $X=0.161 $Y=0.996
+ $X2=0.161 $Y2=0.996
r25 127 128 0.46638 $w=1.8e-08 $l=2e-09 $layer=M1 $thickness=3.6e-08 $X=0.7975
+ $Y=0.948 $X2=0.7995 $Y2=0.948
r26 126 127 3.61444 $w=1.8e-08 $l=1.55e-08 $layer=M1 $thickness=3.6e-08
+ $X=0.782 $Y=0.948 $X2=0.7975 $Y2=0.948
r27 125 126 3.73104 $w=1.8e-08 $l=1.6e-08 $layer=M1 $thickness=3.6e-08 $X=0.766
+ $Y=0.948 $X2=0.782 $Y2=0.948
r28 124 125 2.56509 $w=1.8e-08 $l=1.1e-08 $layer=M1 $thickness=3.6e-08 $X=0.755
+ $Y=0.948 $X2=0.766 $Y2=0.948
r29 123 124 2.56509 $w=1.8e-08 $l=1.1e-08 $layer=M1 $thickness=3.6e-08 $X=0.744
+ $Y=0.948 $X2=0.755 $Y2=0.948
r30 122 123 3.73104 $w=1.8e-08 $l=1.6e-08 $layer=M1 $thickness=3.6e-08 $X=0.728
+ $Y=0.948 $X2=0.744 $Y2=0.948
r31 46 122 3.73104 $w=1.8e-08 $l=1.6e-08 $layer=M1 $thickness=3.6e-08 $X=0.712
+ $Y=0.948 $X2=0.728 $Y2=0.948
r32 120 121 2.68168 $w=1.8e-08 $l=1.15e-08 $layer=M1 $thickness=3.6e-08
+ $X=0.161 $Y=0.9845 $X2=0.161 $Y2=0.996
r33 119 120 3.38125 $w=1.8e-08 $l=1.45e-08 $layer=M1 $thickness=3.6e-08
+ $X=0.161 $Y=0.97 $X2=0.161 $Y2=0.9845
r34 33 114 0.983973 $w=1.8e-08 $l=9e-09 $layer=M1 $thickness=3.6e-08 $X=0.161
+ $Y=0.9575 $X2=0.161 $Y2=0.9485
r35 33 119 2.91487 $w=1.8e-08 $l=1.25e-08 $layer=M1 $thickness=3.6e-08 $X=0.161
+ $Y=0.9575 $X2=0.161 $Y2=0.97
r36 117 116 16.4967 $w=2e-08 $l=4.85e-08 $layer=<ENCRYPTED_LAYER_23>
+ $thickness=5.6e-08 $X=0.215 $Y=1.0635 $X2=0.215 $Y2=1.015
r37 14 116 6.6497 $w=2e-08 $l=1.9e-08 $layer=<ENCRYPTED_LAYER_23>
+ $thickness=5.6e-08 $X=0.215 $Y=0.996 $X2=0.215 $Y2=1.015
r38 29 113 3.36447 $w=1.8e-08 $l=2.15e-08 $layer=M1 $thickness=3.6e-08 $X=0.701
+ $Y=0.948 $X2=0.701 $Y2=0.9695
r39 29 46 0.915974 $w=1.8e-08 $l=1.1e-08 $layer=M1 $thickness=3.6e-08 $X=0.701
+ $Y=0.948 $X2=0.712 $Y2=0.948
r40 19 104 0.633997 $w=1.8e-08 $l=1.43003e-08 $layer=M1 $thickness=3.6e-08
+ $X=0.161 $Y=0.9395 $X2=0.1725 $Y2=0.948
r41 19 114 0.9184 $w=1.8e-08 $l=9e-09 $layer=M1 $thickness=3.6e-08 $X=0.161
+ $Y=0.9395 $X2=0.161 $Y2=0.9485
r42 2 103 19.3796 $w=1.8e-08 $l=1.8e-08 $layer=<ENCRYPTED_LAYER_4> $X=0.215
+ $Y=0.996 $X2=0.215 $Y2=0.996
r43 2 14 10.4265 $w=2.1e-08 $layer=LIG $thickness=5.2e-08 $X=0.215 $Y=0.996
+ $X2=0.215 $Y2=0.996
r44 45 113 3.49785 $w=1.8e-08 $l=1.5e-08 $layer=M1 $thickness=3.6e-08 $X=0.701
+ $Y=0.9845 $X2=0.701 $Y2=0.9695
r45 111 110 14.6259 $w=2e-08 $l=4.3e-08 $layer=<ENCRYPTED_LAYER_23>
+ $thickness=5.6e-08 $X=0.593 $Y=1.0635 $X2=0.593 $Y2=1.0205
r46 109 110 2.72111 $w=2e-08 $l=8e-09 $layer=<ENCRYPTED_LAYER_23>
+ $thickness=5.6e-08 $X=0.593 $Y=1.0125 $X2=0.593 $Y2=1.0205
r47 107 108 14.6259 $w=2e-08 $l=4.3e-08 $layer=<ENCRYPTED_LAYER_23>
+ $thickness=5.6e-08 $X=0.593 $Y=0.9285 $X2=0.593 $Y2=0.9715
r48 105 108 2.72111 $w=2e-08 $l=8e-09 $layer=<ENCRYPTED_LAYER_23>
+ $thickness=5.6e-08 $X=0.593 $Y=0.9795 $X2=0.593 $Y2=0.9715
r49 16 105 5.79936 $w=2e-08 $l=1.65e-08 $layer=<ENCRYPTED_LAYER_23>
+ $thickness=5.6e-08 $X=0.593 $Y=0.996 $X2=0.593 $Y2=0.9795
r50 16 109 5.79936 $w=2e-08 $l=1.65e-08 $layer=<ENCRYPTED_LAYER_23>
+ $thickness=5.6e-08 $X=0.593 $Y=0.996 $X2=0.593 $Y2=1.0125
r51 34 97 3.92057 $w=1.8e-08 $l=1.85e-08 $layer=M1 $thickness=3.6e-08 $X=0.1905
+ $Y=0.948 $X2=0.209 $Y2=0.948
r52 34 104 4.19742 $w=1.8e-08 $l=1.8e-08 $layer=M1 $thickness=3.6e-08 $X=0.1905
+ $Y=0.948 $X2=0.1725 $Y2=0.948
r53 102 103 2.68168 $w=1.8e-08 $l=1.15e-08 $layer=M1 $thickness=3.6e-08
+ $X=0.215 $Y=0.9845 $X2=0.215 $Y2=0.996
r54 35 102 3.49785 $w=1.8e-08 $l=1.5e-08 $layer=M1 $thickness=3.6e-08 $X=0.215
+ $Y=0.9695 $X2=0.215 $Y2=0.9845
r55 30 96 7.2121 $w=1.8e-08 $l=3.8e-08 $layer=M1 $thickness=3.6e-08 $X=0.701
+ $Y=0.996 $X2=0.663 $Y2=0.996
r56 30 45 1.03257 $w=1.8e-08 $l=1.15e-08 $layer=M1 $thickness=3.6e-08 $X=0.701
+ $Y=0.996 $X2=0.701 $Y2=0.9845
r57 4 93 19.3796 $w=1.8e-08 $l=1.8e-08 $layer=<ENCRYPTED_LAYER_4> $X=0.593
+ $Y=0.996 $X2=0.593 $Y2=0.996
r58 4 16 6.54019 $w=2.09524e-08 $layer=<ENCRYPTED_LAYER_23>
+ $thickness=5.21905e-08 $X=0.593 $Y=0.996 $X2=0.593 $Y2=0.996
r59 28 90 1.96775 $w=1.8e-08 $l=1.35e-08 $layer=M1 $thickness=3.6e-08 $X=0.539
+ $Y=1.095 $X2=0.539 $Y2=1.0815
r60 26 85 2.55073 $w=1.8e-08 $l=1.6e-08 $layer=M1 $thickness=3.6e-08 $X=0.539
+ $Y=0.897 $X2=0.539 $Y2=0.913
r61 20 83 1.07865 $w=1.8e-08 $l=8e-09 $layer=M1 $thickness=3.6e-08 $X=0.218
+ $Y=0.948 $X2=0.226 $Y2=0.948
r62 20 97 0.9184 $w=1.8e-08 $l=9e-09 $layer=M1 $thickness=3.6e-08 $X=0.218
+ $Y=0.948 $X2=0.209 $Y2=0.948
r63 20 35 3.52714 $w=1.8e-08 $l=2.17083e-08 $layer=M1 $thickness=3.6e-08
+ $X=0.218 $Y=0.948 $X2=0.215 $Y2=0.9695
r64 95 96 10.0272 $w=1.8e-08 $l=4.3e-08 $layer=M1 $thickness=3.6e-08 $X=0.62
+ $Y=0.996 $X2=0.663 $Y2=0.996
r65 94 95 3.73104 $w=1.8e-08 $l=1.6e-08 $layer=M1 $thickness=3.6e-08 $X=0.604
+ $Y=0.996 $X2=0.62 $Y2=0.996
r66 93 94 2.56509 $w=1.8e-08 $l=1.1e-08 $layer=M1 $thickness=3.6e-08 $X=0.593
+ $Y=0.996 $X2=0.604 $Y2=0.996
r67 92 93 3.96423 $w=1.8e-08 $l=1.7e-08 $layer=M1 $thickness=3.6e-08 $X=0.576
+ $Y=0.996 $X2=0.593 $Y2=0.996
r68 91 92 1.98211 $w=1.8e-08 $l=8.5e-09 $layer=M1 $thickness=3.6e-08 $X=0.5675
+ $Y=0.996 $X2=0.576 $Y2=0.996
r69 44 91 2.3319 $w=1.8e-08 $l=1e-08 $layer=M1 $thickness=3.6e-08 $X=0.5575
+ $Y=0.996 $X2=0.5675 $Y2=0.996
r70 89 90 2.56509 $w=1.8e-08 $l=1.1e-08 $layer=M1 $thickness=3.6e-08 $X=0.539
+ $Y=1.0705 $X2=0.539 $Y2=1.0815
r71 88 89 2.68168 $w=1.8e-08 $l=1.15e-08 $layer=M1 $thickness=3.6e-08 $X=0.539
+ $Y=1.059 $X2=0.539 $Y2=1.0705
r72 87 88 3.26466 $w=1.8e-08 $l=1.4e-08 $layer=M1 $thickness=3.6e-08 $X=0.539
+ $Y=1.045 $X2=0.539 $Y2=1.059
r73 86 87 5.13017 $w=1.8e-08 $l=2.2e-08 $layer=M1 $thickness=3.6e-08 $X=0.539
+ $Y=1.023 $X2=0.539 $Y2=1.045
r74 43 86 3.61444 $w=1.8e-08 $l=1.55e-08 $layer=M1 $thickness=3.6e-08 $X=0.539
+ $Y=1.0075 $X2=0.539 $Y2=1.023
r75 84 85 3.84763 $w=1.8e-08 $l=1.65e-08 $layer=M1 $thickness=3.6e-08 $X=0.539
+ $Y=0.9295 $X2=0.539 $Y2=0.913
r76 42 84 7.81186 $w=1.8e-08 $l=3.35e-08 $layer=M1 $thickness=3.6e-08 $X=0.539
+ $Y=0.963 $X2=0.539 $Y2=0.9295
r77 82 83 3.73104 $w=1.8e-08 $l=1.6e-08 $layer=M1 $thickness=3.6e-08 $X=0.242
+ $Y=0.948 $X2=0.226 $Y2=0.948
r78 81 82 3.73104 $w=1.8e-08 $l=1.6e-08 $layer=M1 $thickness=3.6e-08 $X=0.258
+ $Y=0.948 $X2=0.242 $Y2=0.948
r79 80 81 2.56509 $w=1.8e-08 $l=1.1e-08 $layer=M1 $thickness=3.6e-08 $X=0.269
+ $Y=0.948 $X2=0.258 $Y2=0.948
r80 79 80 2.56509 $w=1.8e-08 $l=1.1e-08 $layer=M1 $thickness=3.6e-08 $X=0.28
+ $Y=0.948 $X2=0.269 $Y2=0.948
r81 78 79 3.73104 $w=1.8e-08 $l=1.6e-08 $layer=M1 $thickness=3.6e-08 $X=0.296
+ $Y=0.948 $X2=0.28 $Y2=0.948
r82 36 78 3.73104 $w=1.8e-08 $l=1.6e-08 $layer=M1 $thickness=3.6e-08 $X=0.312
+ $Y=0.948 $X2=0.296 $Y2=0.948
r83 27 75 3.192 $w=1.8e-08 $l=1.88e-08 $layer=M1 $thickness=3.6e-08 $X=0.539
+ $Y=0.996 $X2=0.5202 $Y2=0.996
r84 27 42 6.51495 $w=1.8e-08 $l=3.3e-08 $layer=M1 $thickness=3.6e-08 $X=0.539
+ $Y=0.996 $X2=0.539 $Y2=0.963
r85 27 43 1.50137 $w=1.8e-08 $l=1.15e-08 $layer=M1 $thickness=3.6e-08 $X=0.539
+ $Y=0.996 $X2=0.539 $Y2=1.0075
r86 27 44 3.1337 $w=1.8e-08 $l=1.85e-08 $layer=M1 $thickness=3.6e-08 $X=0.539
+ $Y=0.996 $X2=0.5575 $Y2=0.996
r87 24 73 1.96775 $w=1.8e-08 $l=1.35e-08 $layer=M1 $thickness=3.6e-08 $X=0.485
+ $Y=1.095 $X2=0.485 $Y2=1.0815
r88 23 68 2.55073 $w=1.8e-08 $l=1.6e-08 $layer=M1 $thickness=3.6e-08 $X=0.485
+ $Y=0.897 $X2=0.485 $Y2=0.913
r89 21 66 3.36447 $w=1.8e-08 $l=2.15e-08 $layer=M1 $thickness=3.6e-08 $X=0.323
+ $Y=0.948 $X2=0.323 $Y2=0.9695
r90 21 36 0.915974 $w=1.8e-08 $l=1.1e-08 $layer=M1 $thickness=3.6e-08 $X=0.323