* Design:	ADDER_M_3bit
* Created:	"Fri Dec 9 2022"
* Vendor:	"Mentor Graphics Corporation"
* Program:	"Calibre xACT 3D"
* Version:	"v2017.4_19.14"
* Corner Name: typical_27
* Nominal Temperature: 25C
* Circuit Temperature: 27C
* 
* Integrated TICER reduction is not enabled.
* SHORT DELAY THRESHOLD: 2e-15
* Fill Mode: NG
* PEX REDUCE CC ABSOLUTE : 1
* PEX REDUCE CC RELATIVE : 0.01
* Delta transform mode : 344834

* .include "ADDER_M_3bit.pex.netlist.pex"

* Start of included file ADDER_M_3bit.pex.netlist.pex

.subckt PM_ADDER_M_3bit%A<1> VSS 22 10 16 3 1 9
c1 1 VSS 0.00501461f $X=0.081 $Y=0.6965
c2 3 VSS 0.0864812f $X=0.081 $Y=0.5865
c3 4 VSS 0.00998843f $X=0.016 $Y=0.602
c4 5 VSS 0.00150038f $X=0.016 $Y=0.697
c5 6 VSS 0.0100378f $X=0.016 $Y=0.792
c6 7 VSS 0.00634398f $X=0.016 $Y=0.6515
c7 8 VSS 0.00676195f $X=0.016 $Y=0.7292
c8 9 VSS 0.00292685f $X=0.0615 $Y=0.697
r1 6 23 2.73439 $w=2.26374e-08 $l=2.58e-08 $layer=M1 $thickness=3.6e-08
+ $X=0.016 $Y=0.792 $X2=0.016 $Y2=0.7662
r2 4 7 6.77759 $w=2.12903e-08 $l=4.95e-08 $layer=M1 $thickness=3.6e-08 $X=0.016
+ $Y=0.602 $X2=0.016 $Y2=0.6515
r3 22 23 2.25568 $w=2e-08 $l=1.32e-08 $layer=M1 $thickness=3.6e-08 $X=0.016
+ $Y=0.753 $X2=0.016 $Y2=0.7662
r4 22 8 4.0432 $w=2e-08 $l=2.38e-08 $layer=M1 $thickness=3.6e-08 $X=0.016
+ $Y=0.753 $X2=0.016 $Y2=0.7292
r5 5 21 3.88381 $w=1.8e-08 $l=2.25e-08 $layer=M1 $thickness=3.6e-08 $X=0.016
+ $Y=0.697 $X2=0.0385 $Y2=0.697
r6 5 7 6.9986 $w=2e-08 $l=4.55e-08 $layer=M1 $thickness=3.6e-08 $X=0.016
+ $Y=0.697 $X2=0.016 $Y2=0.6515
r7 5 8 4.74292 $w=2e-08 $l=3.22e-08 $layer=M1 $thickness=3.6e-08 $X=0.016
+ $Y=0.697 $X2=0.016 $Y2=0.7292
r8 9 20 4.5472 $w=1.8e-08 $l=1.95e-08 $layer=M1 $thickness=3.6e-08 $X=0.0615
+ $Y=0.697 $X2=0.081 $Y2=0.697
r9 9 21 5.36336 $w=1.8e-08 $l=2.3e-08 $layer=M1 $thickness=3.6e-08 $X=0.0615
+ $Y=0.697 $X2=0.0385 $Y2=0.697
r10 1 13 6.4735 $w=2.13953e-08 $layer=<ENCRYPTED_LAYER_23>
+ $thickness=5.22791e-08 $X=0.081 $Y=0.6965 $X2=0.081 $Y2=0.6965
r11 1 20 19.3796 $w=1.8e-08 $l=1.8e-08 $layer=<ENCRYPTED_LAYER_4> $X=0.081
+ $Y=0.6965 $X2=0.081 $Y2=0.697
r12 16 15 14.6259 $w=2e-08 $l=4.3e-08 $layer=<ENCRYPTED_LAYER_23>
+ $thickness=5.6e-08 $X=0.081 $Y=0.7645 $X2=0.081 $Y2=0.7215
r13 14 15 2.7211 $w=2e-08 $l=8e-09 $layer=<ENCRYPTED_LAYER_23>
+ $thickness=5.6e-08 $X=0.081 $Y=0.7135 $X2=0.081 $Y2=0.7215
r14 13 14 5.97793 $w=2e-08 $l=1.7e-08 $layer=<ENCRYPTED_LAYER_23>
+ $thickness=5.6e-08 $X=0.081 $Y=0.6965 $X2=0.081 $Y2=0.7135
r15 12 13 5.80786 $w=2e-08 $l=1.65e-08 $layer=<ENCRYPTED_LAYER_23>
+ $thickness=5.6e-08 $X=0.081 $Y=0.68 $X2=0.081 $Y2=0.6965
r16 11 12 2.55104 $w=2e-08 $l=7.5e-09 $layer=<ENCRYPTED_LAYER_23>
+ $thickness=5.6e-08 $X=0.081 $Y=0.6725 $X2=0.081 $Y2=0.68
r17 10 11 14.6259 $w=2e-08 $l=4.3e-08 $layer=<ENCRYPTED_LAYER_23>
+ $thickness=5.6e-08 $X=0.081 $Y=0.6295 $X2=0.081 $Y2=0.6725
r18 10 3 14.6259 $w=2e-08 $l=4.3e-08 $layer=<ENCRYPTED_LAYER_23>
+ $thickness=5.6e-08 $X=0.081 $Y=0.6295 $X2=0.081 $Y2=0.5865
.ends

.subckt PM_ADDER_M_3bit%XI6/NET2 VSS 6 7 3 1
c1 1 VSS 0.00431929f $X=0.378 $Y=0.076
c2 3 VSS 0.00292995f $X=0.3635 $Y=0.076
r1 6 5 0.0462963 $w=5.4e-08 $l=2.5e-09 $layer=<ENCRYPTED_LAYER_49>
+ $thickness=1e-09 $X=0.3953 $Y=0.076 $X2=0.3925 $Y2=0.076
r2 1 5 0.268519 $w=5.4e-08 $l=1.45e-08 $layer=<ENCRYPTED_LAYER_49>
+ $thickness=1e-09 $X=0.378 $Y=0.076 $X2=0.3925 $Y2=0.076
r3 3 1 0.268519 $w=5.4e-08 $l=1.45e-08 $layer=<ENCRYPTED_LAYER_49>
+ $thickness=1e-09 $X=0.3635 $Y=0.076 $X2=0.378 $Y2=0.076
r4 7 3 0.0462963 $w=5.4e-08 $l=2.5e-09 $layer=<ENCRYPTED_LAYER_49>
+ $thickness=1e-09 $X=0.3606 $Y=0.076 $X2=0.3635 $Y2=0.076
.ends

.subckt PM_ADDER_M_3bit%XI6/NET8 VSS 6 7 3 1
c1 1 VSS 0.00428021f $X=0.756 $Y=0.238
c2 3 VSS 0.00324967f $X=0.7415 $Y=0.238
r1 7 5 0.0462963 $w=5.4e-08 $l=2.5e-09 $layer=<ENCRYPTED_LAYER_48>
+ $thickness=1e-09 $X=0.7733 $Y=0.238 $X2=0.7705 $Y2=0.238
r2 1 5 0.268519 $w=5.4e-08 $l=1.45e-08 $layer=<ENCRYPTED_LAYER_48>
+ $thickness=1e-09 $X=0.756 $Y=0.238 $X2=0.7705 $Y2=0.238
r3 3 1 0.268519 $w=5.4e-08 $l=1.45e-08 $layer=<ENCRYPTED_LAYER_48>
+ $thickness=1e-09 $X=0.7415 $Y=0.238 $X2=0.756 $Y2=0.238
r4 6 3 0.0462963 $w=5.4e-08 $l=2.5e-09 $layer=<ENCRYPTED_LAYER_48>
+ $thickness=1e-09 $X=0.7386 $Y=0.238 $X2=0.7415 $Y2=0.238
.ends

.subckt PM_ADDER_M_3bit%XI6/NET4 VSS 12 13 19 7 1 9 8 2
c1 1 VSS 0.00892666f $X=0.108 $Y=0.238
c2 2 VSS 0.00624058f $X=0.27 $Y=0.238
c3 7 VSS 0.00414366f $X=0.0935 $Y=0.238
c4 8 VSS 0.0277561f $X=0.272 $Y=0.238
c5 9 VSS 0.0183578f $X=0.108 $Y=0.256
r1 19 18 0.0462963 $w=5.4e-08 $l=2.5e-09 $layer=<ENCRYPTED_LAYER_48>
+ $thickness=1e-09 $X=0.2873 $Y=0.238 $X2=0.2845 $Y2=0.238
r2 8 18 0.231482 $w=5.4e-08 $l=1.25e-08 $layer=<ENCRYPTED_LAYER_48>
+ $thickness=1e-09 $X=0.272 $Y=0.238 $X2=0.2845 $Y2=0.238
r3 2 17 19.3796 $w=1.8e-08 $l=1.8e-08 $layer=<ENCRYPTED_LAYER_7> $X=0.27
+ $Y=0.238 $X2=0.27 $Y2=0.256
r4 16 17 15.7403 $w=1.8e-08 $l=6.75e-08 $layer=M1 $thickness=3.6e-08 $X=0.2025
+ $Y=0.256 $X2=0.27 $Y2=0.256
r5 15 16 15.7403 $w=1.8e-08 $l=6.75e-08 $layer=M1 $thickness=3.6e-08 $X=0.135
+ $Y=0.256 $X2=0.2025 $Y2=0.256
r6 14 15 3.14806 $w=1.8e-08 $l=1.35e-08 $layer=M1 $thickness=3.6e-08 $X=0.1215
+ $Y=0.256 $X2=0.135 $Y2=0.256
r7 9 14 3.14806 $w=1.8e-08 $l=1.35e-08 $layer=M1 $thickness=3.6e-08 $X=0.108
+ $Y=0.256 $X2=0.1215 $Y2=0.256
r8 1 9 19.3796 $w=1.8e-08 $l=1.8e-08 $layer=<ENCRYPTED_LAYER_7> $X=0.108
+ $Y=0.238 $X2=0.108 $Y2=0.256
r9 13 11 0.0462963 $w=5.4e-08 $l=2.5e-09 $layer=<ENCRYPTED_LAYER_48>
+ $thickness=1e-09 $X=0.1253 $Y=0.238 $X2=0.1225 $Y2=0.238
r10 1 11 0.268519 $w=5.4e-08 $l=1.45e-08 $layer=<ENCRYPTED_LAYER_48>
+ $thickness=1e-09 $X=0.108 $Y=0.238 $X2=0.1225 $Y2=0.238
r11 7 1 0.268519 $w=5.4e-08 $l=1.45e-08 $layer=<ENCRYPTED_LAYER_48>
+ $thickness=1e-09 $X=0.0935 $Y=0.238 $X2=0.108 $Y2=0.238
r12 12 7 0.0462963 $w=5.4e-08 $l=2.5e-09 $layer=<ENCRYPTED_LAYER_48>
+ $thickness=1e-09 $X=0.0906 $Y=0.238 $X2=0.0935 $Y2=0.238
r13 2 8 1e-05 $l=2e-09 $X=0.27 $Y=0.238 $X2=0.272 $Y2=0.238
.ends

.subckt PM_ADDER_M_3bit%XI1/NET3 VSS 11 19 20 7 1 9 2 8
c1 1 VSS 0.00864297f $X=0.27 $Y=0.508
c2 2 VSS 0.00627142f $X=0.432 $Y=0.508
c3 7 VSS 0.00418434f $X=0.2555 $Y=0.508
c4 8 VSS 0.02763f $X=0.434 $Y=0.508
c5 9 VSS 0.0179308f $X=0.3655 $Y=0.526
r1 20 18 0.0462963 $w=5.4e-08 $l=2.5e-09 $layer=<ENCRYPTED_LAYER_49>
+ $thickness=1e-09 $X=0.2873 $Y=0.508 $X2=0.2845 $Y2=0.508
r2 1 18 0.268519 $w=5.4e-08 $l=1.45e-08 $layer=<ENCRYPTED_LAYER_49>
+ $thickness=1e-09 $X=0.27 $Y=0.508 $X2=0.2845 $Y2=0.508
r3 7 1 0.268519 $w=5.4e-08 $l=1.45e-08 $layer=<ENCRYPTED_LAYER_49>
+ $thickness=1e-09 $X=0.2555 $Y=0.508 $X2=0.27 $Y2=0.508
r4 19 7 0.0462963 $w=5.4e-08 $l=2.5e-09 $layer=<ENCRYPTED_LAYER_49>
+ $thickness=1e-09 $X=0.2526 $Y=0.508 $X2=0.2555 $Y2=0.508
r5 1 15 19.3796 $w=1.8e-08 $l=1.8e-08 $layer=<ENCRYPTED_LAYER_7> $X=0.27
+ $Y=0.508 $X2=0.27 $Y2=0.526
r6 15 16 3.14806 $w=1.8e-08 $l=1.35e-08 $layer=M1 $thickness=3.6e-08 $X=0.27
+ $Y=0.526 $X2=0.2835 $Y2=0.526
r7 14 16 3.14806 $w=1.8e-08 $l=1.35e-08 $layer=M1 $thickness=3.6e-08 $X=0.297
+ $Y=0.526 $X2=0.2835 $Y2=0.526
r8 13 14 2.3319 $w=1.8e-08 $l=1e-08 $layer=M1 $thickness=3.6e-08 $X=0.307
+ $Y=0.526 $X2=0.297 $Y2=0.526
r9 9 12 15.5071 $w=1.8e-08 $l=6.65e-08 $layer=M1 $thickness=3.6e-08 $X=0.3655
+ $Y=0.526 $X2=0.432 $Y2=0.526
r10 9 13 13.6416 $w=1.8e-08 $l=5.85e-08 $layer=M1 $thickness=3.6e-08 $X=0.3655
+ $Y=0.526 $X2=0.307 $Y2=0.526
r11 2 12 19.3796 $w=1.8e-08 $l=1.8e-08 $layer=<ENCRYPTED_LAYER_7> $X=0.432
+ $Y=0.508 $X2=0.432 $Y2=0.526
r12 11 10 0.0462963 $w=5.4e-08 $l=2.5e-09 $layer=<ENCRYPTED_LAYER_49>
+ $thickness=1e-09 $X=0.4493 $Y=0.508 $X2=0.4465 $Y2=0.508
r13 8 10 0.231482 $w=5.4e-08 $l=1.25e-08 $layer=<ENCRYPTED_LAYER_49>
+ $thickness=1e-09 $X=0.434 $Y=0.508 $X2=0.4465 $Y2=0.508
r14 2 8 1e-05 $l=2e-09 $X=0.432 $Y=0.508 $X2=0.434 $Y2=0.508
.ends

.subckt PM_ADDER_M_3bit%XI1/NET4 VSS 12 13 18 7 2 8 9 1
c1 1 VSS 0.00843961f $X=0.27 $Y=0.346
c2 2 VSS 0.00655495f $X=0.432 $Y=0.346
c3 7 VSS 0.00397671f $X=0.2555 $Y=0.346
c4 8 VSS 0.0277007f $X=0.434 $Y=0.346
c5 9 VSS 0.0176354f $X=0.27 $Y=0.328
r1 18 17 0.0462963 $w=5.4e-08 $l=2.5e-09 $layer=<ENCRYPTED_LAYER_48>
+ $thickness=1e-09 $X=0.4493 $Y=0.346 $X2=0.4465 $Y2=0.346
r2 8 17 0.231482 $w=5.4e-08 $l=1.25e-08 $layer=<ENCRYPTED_LAYER_48>
+ $thickness=1e-09 $X=0.434 $Y=0.346 $X2=0.4465 $Y2=0.346
r3 2 16 19.3796 $w=1.8e-08 $l=1.8e-08 $layer=<ENCRYPTED_LAYER_7> $X=0.432
+ $Y=0.346 $X2=0.432 $Y2=0.328
r4 15 16 15.5071 $w=1.8e-08 $l=6.65e-08 $layer=M1 $thickness=3.6e-08 $X=0.3655
+ $Y=0.328 $X2=0.432 $Y2=0.328
r5 14 15 16.7897 $w=1.8e-08 $l=7.2e-08 $layer=M1 $thickness=3.6e-08 $X=0.2935
+ $Y=0.328 $X2=0.3655 $Y2=0.328
r6 9 14 5.47996 $w=1.8e-08 $l=2.35e-08 $layer=M1 $thickness=3.6e-08 $X=0.27
+ $Y=0.328 $X2=0.2935 $Y2=0.328
r7 1 9 19.3796 $w=1.8e-08 $l=1.8e-08 $layer=<ENCRYPTED_LAYER_7> $X=0.27
+ $Y=0.346 $X2=0.27 $Y2=0.328
r8 13 11 0.0462963 $w=5.4e-08 $l=2.5e-09 $layer=<ENCRYPTED_LAYER_48>
+ $thickness=1e-09 $X=0.2873 $Y=0.346 $X2=0.2845 $Y2=0.346
r9 1 11 0.268519 $w=5.4e-08 $l=1.45e-08 $layer=<ENCRYPTED_LAYER_48>
+ $thickness=1e-09 $X=0.27 $Y=0.346 $X2=0.2845 $Y2=0.346
r10 7 1 0.268519 $w=5.4e-08 $l=1.45e-08 $layer=<ENCRYPTED_LAYER_48>
+ $thickness=1e-09 $X=0.2555 $Y=0.346 $X2=0.27 $Y2=0.346
r11 12 7 0.0462963 $w=5.4e-08 $l=2.5e-09 $layer=<ENCRYPTED_LAYER_48>
+ $thickness=1e-09 $X=0.2526 $Y=0.346 $X2=0.2555 $Y2=0.346
r12 2 8 1e-05 $l=2e-09 $X=0.432 $Y=0.346 $X2=0.434 $Y2=0.346
.ends

.subckt PM_ADDER_M_3bit%XI1/NET5 VSS 6 7 3 1
c1 1 VSS 0.00444956f $X=0.54 $Y=0.346
c2 3 VSS 0.00303717f $X=0.5255 $Y=0.346
r1 7 5 0.0462963 $w=5.4e-08 $l=2.5e-09 $layer=<ENCRYPTED_LAYER_48>
+ $thickness=1e-09 $X=0.5573 $Y=0.346 $X2=0.5545 $Y2=0.346
r2 1 5 0.268519 $w=5.4e-08 $l=1.45e-08 $layer=<ENCRYPTED_LAYER_48>
+ $thickness=1e-09 $X=0.54 $Y=0.346 $X2=0.5545 $Y2=0.346
r3 3 1 0.268519 $w=5.4e-08 $l=1.45e-08 $layer=<ENCRYPTED_LAYER_48>
+ $thickness=1e-09 $X=0.5255 $Y=0.346 $X2=0.54 $Y2=0.346
r4 6 3 0.0462963 $w=5.4e-08 $l=2.5e-09 $layer=<ENCRYPTED_LAYER_48>
+ $thickness=1e-09 $X=0.5226 $Y=0.346 $X2=0.5255 $Y2=0.346
.ends

.subckt PM_ADDER_M_3bit%XI6/NET6 VSS 12 13 18 19 7 1 9 8 2
c1 1 VSS 0.00804586f $X=0.486 $Y=0.076
c2 2 VSS 0.00608515f $X=0.594 $Y=0.076
c3 7 VSS 0.00374312f $X=0.4715 $Y=0.076
c4 8 VSS 0.00287723f $X=0.5795 $Y=0.076
c5 9 VSS 0.0113118f $X=0.486 $Y=0.058
r1 19 17 0.0462963 $w=5.4e-08 $l=2.5e-09 $layer=<ENCRYPTED_LAYER_49>
+ $thickness=1e-09 $X=0.6113 $Y=0.076 $X2=0.6085 $Y2=0.076
r2 2 17 0.268519 $w=5.4e-08 $l=1.45e-08 $layer=<ENCRYPTED_LAYER_49>
+ $thickness=1e-09 $X=0.594 $Y=0.076 $X2=0.6085 $Y2=0.076
r3 8 2 0.268519 $w=5.4e-08 $l=1.45e-08 $layer=<ENCRYPTED_LAYER_49>
+ $thickness=1e-09 $X=0.5795 $Y=0.076 $X2=0.594 $Y2=0.076
r4 18 8 0.0462963 $w=5.4e-08 $l=2.5e-09 $layer=<ENCRYPTED_LAYER_49>
+ $thickness=1e-09 $X=0.5766 $Y=0.076 $X2=0.5795 $Y2=0.076
r5 2 15 19.3796 $w=1.8e-08 $l=1.8e-08 $layer=<ENCRYPTED_LAYER_7> $X=0.594
+ $Y=0.076 $X2=0.594 $Y2=0.058
r6 14 15 12.5922 $w=1.8e-08 $l=5.4e-08 $layer=M1 $thickness=3.6e-08 $X=0.54
+ $Y=0.058 $X2=0.594 $Y2=0.058
r7 9 14 12.5922 $w=1.8e-08 $l=5.4e-08 $layer=M1 $thickness=3.6e-08 $X=0.486
+ $Y=0.058 $X2=0.54 $Y2=0.058
r8 1 9 19.3796 $w=1.8e-08 $l=1.8e-08 $layer=<ENCRYPTED_LAYER_7> $X=0.486
+ $Y=0.076 $X2=0.486 $Y2=0.058
r9 13 11 0.0462963 $w=5.4e-08 $l=2.5e-09 $layer=<ENCRYPTED_LAYER_49>
+ $thickness=1e-09 $X=0.5033 $Y=0.076 $X2=0.5005 $Y2=0.076
r10 1 11 0.268519 $w=5.4e-08 $l=1.45e-08 $layer=<ENCRYPTED_LAYER_49>
+ $thickness=1e-09 $X=0.486 $Y=0.076 $X2=0.5005 $Y2=0.076
r11 7 1 0.268519 $w=5.4e-08 $l=1.45e-08 $layer=<ENCRYPTED_LAYER_49>
+ $thickness=1e-09 $X=0.4715 $Y=0.076 $X2=0.486 $Y2=0.076
r12 12 7 0.0462963 $w=5.4e-08 $l=2.5e-09 $layer=<ENCRYPTED_LAYER_49>
+ $thickness=1e-09 $X=0.4686 $Y=0.076 $X2=0.4715 $Y2=0.076
.ends

.subckt PM_ADDER_M_3bit%COUT VSS 18 13 25 7 11 8
c1 1 VSS 0.00998274f $X=1.134 $Y=0.0895
c2 2 VSS 0.00954383f $X=1.134 $Y=0.2245
c3 7 VSS 0.0393096f $X=1.1195 $Y=0.2245
c4 8 VSS 0.0396695f $X=1.1195 $Y=0.0895
c5 9 VSS 0.00722635f $X=1.161 $Y=0.058
c6 10 VSS 0.00703254f $X=1.1225 $Y=0.256
c7 11 VSS 0.00653609f $X=1.161 $Y=0.2065
r1 8 1 0.154321 $w=8.1e-08 $l=1.25e-08 $layer=<ENCRYPTED_LAYER_49>
+ $thickness=1e-09 $X=1.1195 $Y=0.0895 $X2=1.134 $Y2=0.0895
r2 25 8 0.0308642 $w=8.1e-08 $l=2.5e-09 $layer=<ENCRYPTED_LAYER_49>
+ $thickness=1e-09 $X=1.1166 $Y=0.0895 $X2=1.1195 $Y2=0.0895
r3 1 22 19.3796 $w=1.8e-08 $l=1.8e-08 $layer=<ENCRYPTED_LAYER_7> $X=1.134
+ $Y=0.0895 $X2=1.134 $Y2=0.058
r4 22 23 3.03147 $w=1.8e-08 $l=1.3e-08 $layer=M1 $thickness=3.6e-08 $X=1.134
+ $Y=0.058 $X2=1.147 $Y2=0.058
r5 9 20 7.91516 $w=1.9604e-08 $l=4.95e-08 $layer=M1 $thickness=3.6e-08 $X=1.161
+ $Y=0.058 $X2=1.161 $Y2=0.1075
r6 9 23 1.9532 $w=1.8e-08 $l=1.4e-08 $layer=M1 $thickness=3.6e-08 $X=1.161
+ $Y=0.058 $X2=1.147 $Y2=0.058
r7 18 19 1.40448 $w=2e-08 $l=8.2e-09 $layer=M1 $thickness=3.6e-08 $X=1.169
+ $Y=0.15 $X2=1.161 $Y2=0.1582
r8 18 17 0.2128 $w=2e-08 $l=1.3e-09 $layer=M1 $thickness=3.6e-08 $X=1.169
+ $Y=0.15 $X2=1.161 $Y2=0.1487
r9 17 20 7.0224 $w=2e-08 $l=4.12e-08 $layer=M1 $thickness=3.6e-08 $X=1.161
+ $Y=0.1487 $X2=1.161 $Y2=0.1075
r10 11 16 7.91516 $w=1.9604e-08 $l=4.95e-08 $layer=M1 $thickness=3.6e-08
+ $X=1.161 $Y=0.2065 $X2=1.161 $Y2=0.256
r11 11 19 8.21408 $w=2e-08 $l=4.83e-08 $layer=M1 $thickness=3.6e-08 $X=1.161
+ $Y=0.2065 $X2=1.161 $Y2=0.1582
r12 15 16 1.9532 $w=1.8e-08 $l=1.4e-08 $layer=M1 $thickness=3.6e-08 $X=1.147
+ $Y=0.256 $X2=1.161 $Y2=0.256
r13 14 15 3.03147 $w=1.8e-08 $l=1.3e-08 $layer=M1 $thickness=3.6e-08 $X=1.134
+ $Y=0.256 $X2=1.147 $Y2=0.256
r14 10 14 2.68168 $w=1.8e-08 $l=1.15e-08 $layer=M1 $thickness=3.6e-08 $X=1.1225
+ $Y=0.256 $X2=1.134 $Y2=0.256
r15 2 14 19.3796 $w=1.8e-08 $l=1.8e-08 $layer=<ENCRYPTED_LAYER_7> $X=1.134
+ $Y=0.2245 $X2=1.134 $Y2=0.256
r16 7 2 0.154321 $w=8.1e-08 $l=1.25e-08 $layer=<ENCRYPTED_LAYER_48>
+ $thickness=1e-09 $X=1.1195 $Y=0.2245 $X2=1.134 $Y2=0.2245
r17 13 7 0.0308642 $w=8.1e-08 $l=2.5e-09 $layer=<ENCRYPTED_LAYER_48>
+ $thickness=1e-09 $X=1.1166 $Y=0.2245 $X2=1.1195 $Y2=0.2245
.ends

.subckt PM_ADDER_M_3bit%XI6/NET9 VSS 6 7 3 1
c1 1 VSS 0.00266152f $X=0.702 $Y=0.238
c2 3 VSS 0.00233448f $X=0.6875 $Y=0.238
r1 7 5 0.0462963 $w=5.4e-08 $l=2.5e-09 $layer=<ENCRYPTED_LAYER_48>
+ $thickness=1e-09 $X=0.7193 $Y=0.238 $X2=0.7165 $Y2=0.238
r2 1 5 0.268519 $w=5.4e-08 $l=1.45e-08 $layer=<ENCRYPTED_LAYER_48>
+ $thickness=1e-09 $X=0.702 $Y=0.238 $X2=0.7165 $Y2=0.238
r3 3 1 0.268519 $w=5.4e-08 $l=1.45e-08 $layer=<ENCRYPTED_LAYER_48>
+ $thickness=1e-09 $X=0.6875 $Y=0.238 $X2=0.702 $Y2=0.238
r4 6 3 0.0462963 $w=5.4e-08 $l=2.5e-09 $layer=<ENCRYPTED_LAYER_48>
+ $thickness=1e-09 $X=0.6846 $Y=0.238 $X2=0.6875 $Y2=0.238
.ends

.subckt PM_ADDER_M_3bit%XI6/NET7 VSS 12 13 18 19 7 9 8 2 1
c1 1 VSS 0.00796401f $X=0.486 $Y=0.238
c2 2 VSS 0.00633235f $X=0.594 $Y=0.238
c3 7 VSS 0.00387085f $X=0.4715 $Y=0.238
c4 8 VSS 0.0031594f $X=0.5795 $Y=0.238
c5 9 VSS 0.0112197f $X=0.486 $Y=0.256
r1 19 17 0.0462963 $w=5.4e-08 $l=2.5e-09 $layer=<ENCRYPTED_LAYER_48>
+ $thickness=1e-09 $X=0.6113 $Y=0.238 $X2=0.6085 $Y2=0.238
r2 2 17 0.268519 $w=5.4e-08 $l=1.45e-08 $layer=<ENCRYPTED_LAYER_48>
+ $thickness=1e-09 $X=0.594 $Y=0.238 $X2=0.6085 $Y2=0.238
r3 8 2 0.268519 $w=5.4e-08 $l=1.45e-08 $layer=<ENCRYPTED_LAYER_48>
+ $thickness=1e-09 $X=0.5795 $Y=0.238 $X2=0.594 $Y2=0.238
r4 18 8 0.0462963 $w=5.4e-08 $l=2.5e-09 $layer=<ENCRYPTED_LAYER_48>
+ $thickness=1e-09 $X=0.5766 $Y=0.238 $X2=0.5795 $Y2=0.238
r5 2 15 19.3796 $w=1.8e-08 $l=1.8e-08 $layer=<ENCRYPTED_LAYER_7> $X=0.594
+ $Y=0.238 $X2=0.594 $Y2=0.256
r6 14 15 12.5922 $w=1.8e-08 $l=5.4e-08 $layer=M1 $thickness=3.6e-08 $X=0.54
+ $Y=0.256 $X2=0.594 $Y2=0.256
r7 9 14 12.5922 $w=1.8e-08 $l=5.4e-08 $layer=M1 $thickness=3.6e-08 $X=0.486
+ $Y=0.256 $X2=0.54 $Y2=0.256
r8 1 9 19.3796 $w=1.8e-08 $l=1.8e-08 $layer=<ENCRYPTED_LAYER_7> $X=0.486
+ $Y=0.238 $X2=0.486 $Y2=0.256
r9 13 11 0.0462963 $w=5.4e-08 $l=2.5e-09 $layer=<ENCRYPTED_LAYER_48>
+ $thickness=1e-09 $X=0.5033 $Y=0.238 $X2=0.5005 $Y2=0.238
r10 1 11 0.268519 $w=5.4e-08 $l=1.45e-08 $layer=<ENCRYPTED_LAYER_48>
+ $thickness=1e-09 $X=0.486 $Y=0.238 $X2=0.5005 $Y2=0.238
r11 7 1 0.268519 $w=5.4e-08 $l=1.45e-08 $layer=<ENCRYPTED_LAYER_48>
+ $thickness=1e-09 $X=0.4715 $Y=0.238 $X2=0.486 $Y2=0.238
r12 12 7 0.0462963 $w=5.4e-08 $l=2.5e-09 $layer=<ENCRYPTED_LAYER_48>
+ $thickness=1e-09 $X=0.4686 $Y=0.238 $X2=0.4715 $Y2=0.238
.ends

.subckt PM_ADDER_M_3bit%NET3 VSS 20 26 49 50 53 54 15 3 16 18 17 10 11 4 13 14
+ 19 12 1 9
c1 1 VSS 0.00500247f $X=0.945 $Y=0.1565
c2 3 VSS 0.00432394f $X=0.648 $Y=0.076
c3 4 VSS 0.00441117f $X=0.648 $Y=0.238
c4 9 VSS 0.0864793f $X=0.945 $Y=0.0465
c5 10 VSS 0.00360129f $X=0.6335 $Y=0.238
c6 11 VSS 0.0034194f $X=0.6335 $Y=0.076
c7 12 VSS 0.00355753f $X=0.891 $Y=0.058
c8 13 VSS 0.00049109f $X=0.891 $Y=0.157
c9 14 VSS 0.00336352f $X=0.891 $Y=0.256
c10 15 VSS 0.0237026f $X=0.865 $Y=0.058
c11 16 VSS 0.0220872f $X=0.865 $Y=0.256
c12 17 VSS 0.00408797f $X=0.891 $Y=0.1455
c13 18 VSS 0.00327464f $X=0.891 $Y=0.173
c14 19 VSS 0.00139568f $X=0.918 $Y=0.157
r1 54 52 0.0462963 $w=5.4e-08 $l=2.5e-09 $layer=<ENCRYPTED_LAYER_48>
+ $thickness=1e-09 $X=0.6653 $Y=0.238 $X2=0.6625 $Y2=0.238
r2 4 52 0.268519 $w=5.4e-08 $l=1.45e-08 $layer=<ENCRYPTED_LAYER_48>
+ $thickness=1e-09 $X=0.648 $Y=0.238 $X2=0.6625 $Y2=0.238
r3 10 4 0.268519 $w=5.4e-08 $l=1.45e-08 $layer=<ENCRYPTED_LAYER_48>
+ $thickness=1e-09 $X=0.6335 $Y=0.238 $X2=0.648 $Y2=0.238
r4 53 10 0.0462963 $w=5.4e-08 $l=2.5e-09 $layer=<ENCRYPTED_LAYER_48>
+ $thickness=1e-09 $X=0.6306 $Y=0.238 $X2=0.6335 $Y2=0.238
r5 50 48 0.0462963 $w=5.4e-08 $l=2.5e-09 $layer=<ENCRYPTED_LAYER_49>
+ $thickness=1e-09 $X=0.6653 $Y=0.076 $X2=0.6625 $Y2=0.076
r6 3 48 0.268519 $w=5.4e-08 $l=1.45e-08 $layer=<ENCRYPTED_LAYER_49>
+ $thickness=1e-09 $X=0.648 $Y=0.076 $X2=0.6625 $Y2=0.076
r7 11 3 0.268519 $w=5.4e-08 $l=1.45e-08 $layer=<ENCRYPTED_LAYER_49>
+ $thickness=1e-09 $X=0.6335 $Y=0.076 $X2=0.648 $Y2=0.076
r8 49 11 0.0462963 $w=5.4e-08 $l=2.5e-09 $layer=<ENCRYPTED_LAYER_49>
+ $thickness=1e-09 $X=0.6306 $Y=0.076 $X2=0.6335 $Y2=0.076
r9 4 45 19.3796 $w=1.8e-08 $l=1.8e-08 $layer=<ENCRYPTED_LAYER_7> $X=0.648
+ $Y=0.238 $X2=0.648 $Y2=0.256
r10 3 43 19.3796 $w=1.8e-08 $l=1.8e-08 $layer=<ENCRYPTED_LAYER_7> $X=0.648
+ $Y=0.076 $X2=0.648 $Y2=0.058
r11 45 46 24.3683 $w=1.8e-08 $l=1.045e-07 $layer=M1 $thickness=3.6e-08 $X=0.648
+ $Y=0.256 $X2=0.7525 $Y2=0.256
r12 16 46 26.2339 $w=1.8e-08 $l=1.125e-07 $layer=M1 $thickness=3.6e-08 $X=0.865
+ $Y=0.256 $X2=0.7525 $Y2=0.256
r13 43 44 3.14806 $w=1.8e-08 $l=1.35e-08 $layer=M1 $thickness=3.6e-08 $X=0.648
+ $Y=0.058 $X2=0.6615 $Y2=0.058
r14 42 44 3.14806 $w=1.8e-08 $l=1.35e-08 $layer=M1 $thickness=3.6e-08 $X=0.675
+ $Y=0.058 $X2=0.6615 $Y2=0.058
r15 41 42 6.29612 $w=1.8e-08 $l=2.7e-08 $layer=M1 $thickness=3.6e-08 $X=0.702
+ $Y=0.058 $X2=0.675 $Y2=0.058
r16 40 41 6.29612 $w=1.8e-08 $l=2.7e-08 $layer=M1 $thickness=3.6e-08 $X=0.729
+ $Y=0.058 $X2=0.702 $Y2=0.058
r17 39 40 6.29612 $w=1.8e-08 $l=2.7e-08 $layer=M1 $thickness=3.6e-08 $X=0.756
+ $Y=0.058 $X2=0.729 $Y2=0.058
r18 38 39 6.29612 $w=1.8e-08 $l=2.7e-08 $layer=M1 $thickness=3.6e-08 $X=0.783
+ $Y=0.058 $X2=0.756 $Y2=0.058
r19 37 38 8.62802 $w=1.8e-08 $l=3.7e-08 $layer=M1 $thickness=3.6e-08 $X=0.82
+ $Y=0.058 $X2=0.783 $Y2=0.058
r20 15 37 10.4935 $w=1.8e-08 $l=4.5e-08 $layer=M1 $thickness=3.6e-08 $X=0.865
+ $Y=0.058 $X2=0.82 $Y2=0.058
r21 14 36 2.5483 $w=1.8e-08 $l=1.8e-08 $layer=M1 $thickness=3.6e-08 $X=0.891
+ $Y=0.256 $X2=0.891 $Y2=0.238
r22 14 16 4.41382 $w=1.8e-08 $l=2.6e-08 $layer=M1 $thickness=3.6e-08 $X=0.891
+ $Y=0.256 $X2=0.865 $Y2=0.256
r23 12 33 2.5483 $w=1.8e-08 $l=1.8e-08 $layer=M1 $thickness=3.6e-08 $X=0.891
+ $Y=0.058 $X2=0.891 $Y2=0.076
r24 12 15 4.41382 $w=1.8e-08 $l=2.6e-08 $layer=M1 $thickness=3.6e-08 $X=0.891
+ $Y=0.058 $X2=0.865 $Y2=0.058
r25 35 36 4.19742 $w=1.8e-08 $l=1.8e-08 $layer=M1 $thickness=3.6e-08 $X=0.891
+ $Y=0.22 $X2=0.891 $Y2=0.238
r26 34 35 5.71315 $w=1.8e-08 $l=2.45e-08 $layer=M1 $thickness=3.6e-08 $X=0.891
+ $Y=0.1955 $X2=0.891 $Y2=0.22
r27 18 34 5.24677 $w=1.8e-08 $l=2.25e-08 $layer=M1 $thickness=3.6e-08 $X=0.891
+ $Y=0.173 $X2=0.891 $Y2=0.1955
r28 32 33 2.91487 $w=1.8e-08 $l=1.25e-08 $layer=M1 $thickness=3.6e-08 $X=0.891
+ $Y=0.0885 $X2=0.891 $Y2=0.076
r29 31 32 6.7625 $w=1.8e-08 $l=2.9e-08 $layer=M1 $thickness=3.6e-08 $X=0.891
+ $Y=0.1175 $X2=0.891 $Y2=0.0885
r30 17 31 6.52931 $w=1.8e-08 $l=2.8e-08 $layer=M1 $thickness=3.6e-08 $X=0.891
+ $Y=0.1455 $X2=0.891 $Y2=0.1175
r31 13 19 5.11582 $w=1.8e-08 $l=2.7e-08 $layer=M1 $thickness=3.6e-08 $X=0.891
+ $Y=0.157 $X2=0.918 $Y2=0.157
r32 13 17 1.50137 $w=1.8e-08 $l=1.15e-08 $layer=M1 $thickness=3.6e-08 $X=0.891
+ $Y=0.157 $X2=0.891 $Y2=0.1455
r33 13 18 2.55073 $w=1.8e-08 $l=1.6e-08 $layer=M1 $thickness=3.6e-08 $X=0.891
+ $Y=0.157 $X2=0.891 $Y2=0.173
r34 19 30 6.29612 $w=1.8e-08 $l=2.7e-08 $layer=M1 $thickness=3.6e-08 $X=0.918
+ $Y=0.157 $X2=0.945 $Y2=0.157
r35 1 23 6.4735 $w=2.13953e-08 $layer=<ENCRYPTED_LAYER_23>
+ $thickness=5.22791e-08 $X=0.945 $Y=0.1565 $X2=0.945 $Y2=0.1565
r36 1 30 19.3796 $w=1.8e-08 $l=1.8e-08 $layer=<ENCRYPTED_LAYER_4> $X=0.945
+ $Y=0.1565 $X2=0.945 $Y2=0.157
r37 26 25 14.6259 $w=2e-08 $l=4.3e-08 $layer=<ENCRYPTED_LAYER_23>
+ $thickness=5.6e-08 $X=0.945 $Y=0.2245 $X2=0.945 $Y2=0.1815
r38 24 25 2.72111 $w=2e-08 $l=8e-09 $layer=<ENCRYPTED_LAYER_23>
+ $thickness=5.6e-08 $X=0.945 $Y=0.1735 $X2=0.945 $Y2=0.1815
r39 23 24 5.97793 $w=2e-08 $l=1.7e-08 $layer=<ENCRYPTED_LAYER_23>
+ $thickness=5.6e-08 $X=0.945 $Y=0.1565 $X2=0.945 $Y2=0.1735
r40 22 23 5.80786 $w=2e-08 $l=1.65e-08 $layer=<ENCRYPTED_LAYER_23>
+ $thickness=5.6e-08 $X=0.945 $Y=0.14 $X2=0.945 $Y2=0.1565
r41 21 22 2.55104 $w=2e-08 $l=7.5e-09 $layer=<ENCRYPTED_LAYER_23>
+ $thickness=5.6e-08 $X=0.945 $Y=0.1325 $X2=0.945 $Y2=0.14
r42 20 21 14.6259 $w=2e-08 $l=4.3e-08 $layer=<ENCRYPTED_LAYER_23>
+ $thickness=5.6e-08 $X=0.945 $Y=0.0895 $X2=0.945 $Y2=0.1325
r43 20 9 14.6259 $w=2e-08 $l=4.3e-08 $layer=<ENCRYPTED_LAYER_23>
+ $thickness=5.6e-08 $X=0.945 $Y=0.0895 $X2=0.945 $Y2=0.0465
.ends

.subckt PM_ADDER_M_3bit%XI6/NET10 VSS 6 7 3 1
c1 1 VSS 0.00443168f $X=0.756 $Y=0.076
c2 3 VSS 0.00298743f $X=0.7415 $Y=0.076
r1 7 5 0.0462963 $w=5.4e-08 $l=2.5e-09 $layer=<ENCRYPTED_LAYER_49>
+ $thickness=1e-09 $X=0.7733 $Y=0.076 $X2=0.7705 $Y2=0.076
r2 1 5 0.268519 $w=5.4e-08 $l=1.45e-08 $layer=<ENCRYPTED_LAYER_49>
+ $thickness=1e-09 $X=0.756 $Y=0.076 $X2=0.7705 $Y2=0.076
r3 3 1 0.268519 $w=5.4e-08 $l=1.45e-08 $layer=<ENCRYPTED_LAYER_49>
+ $thickness=1e-09 $X=0.7415 $Y=0.076 $X2=0.756 $Y2=0.076
r4 6 3 0.0462963 $w=5.4e-08 $l=2.5e-09 $layer=<ENCRYPTED_LAYER_49>
+ $thickness=1e-09 $X=0.7386 $Y=0.076 $X2=0.7415 $Y2=0.076
.ends

.subckt PM_ADDER_M_3bit%CIN VSS 10 23 27 48 51 54 57 7 14 15 13 12 2 3 1 11 16
+ 9 8
c1 1 VSS 0.0044315f $X=0.459 $Y=0.697
c2 2 VSS 0.00435359f $X=0.729 $Y=0.697
c3 3 VSS 0.00320792f $X=0.837 $Y=0.697
c4 7 VSS 0.0138836f $X=0.459 $Y=0.5865
c5 8 VSS 0.0605642f $X=0.729 $Y=0.697
c6 9 VSS 0.00653523f $X=0.837 $Y=0.697
c7 10 VSS 0.00370376f $X=0.467 $Y=0.69
c8 11 VSS 0.00335578f $X=0.729 $Y=0.6825
c9 12 VSS 0.00329458f $X=0.837 $Y=0.6825
c10 13 VSS 0.00368086f $X=0.459 $Y=0.697
c11 14 VSS 0.00321491f $X=0.729 $Y=0.6825
c12 15 VSS 0.00363757f $X=0.837 $Y=0.6825
c13 16 VSS 0.0051562f $X=0.459 $Y=0.697
r1 57 56 16.4967 $w=2e-08 $l=4.85e-08 $layer=<ENCRYPTED_LAYER_23>
+ $thickness=5.6e-08 $X=0.837 $Y=0.778 $X2=0.837 $Y2=0.7295
r2 54 55 16.4967 $w=2e-08 $l=4.85e-08 $layer=<ENCRYPTED_LAYER_23>
+ $thickness=5.6e-08 $X=0.837 $Y=0.616 $X2=0.837 $Y2=0.6645
r3 9 55 11.2416 $w=2e-08 $l=3.25e-08 $layer=<ENCRYPTED_LAYER_23>
+ $thickness=5.6e-08 $X=0.837 $Y=0.697 $X2=0.837 $Y2=0.6645
r4 9 56 11.2416 $w=2e-08 $l=3.25e-08 $layer=<ENCRYPTED_LAYER_23>
+ $thickness=5.6e-08 $X=0.837 $Y=0.697 $X2=0.837 $Y2=0.7295
r5 51 50 16.4967 $w=2e-08 $l=4.85e-08 $layer=<ENCRYPTED_LAYER_23>
+ $thickness=5.6e-08 $X=0.729 $Y=0.778 $X2=0.729 $Y2=0.7295
r6 48 49 16.4967 $w=2e-08 $l=4.85e-08 $layer=<ENCRYPTED_LAYER_23>
+ $thickness=5.6e-08 $X=0.729 $Y=0.616 $X2=0.729 $Y2=0.6645
r7 8 49 11.2416 $w=2e-08 $l=3.25e-08 $layer=<ENCRYPTED_LAYER_23>
+ $thickness=5.6e-08 $X=0.729 $Y=0.697 $X2=0.729 $Y2=0.6645
r8 8 50 11.2416 $w=2e-08 $l=3.25e-08 $layer=<ENCRYPTED_LAYER_23>
+ $thickness=5.6e-08 $X=0.729 $Y=0.697 $X2=0.729 $Y2=0.7295
r9 3 45 19.3796 $w=1.8e-08 $l=1.8e-08 $layer=<ENCRYPTED_LAYER_4> $X=0.837
+ $Y=0.697 $X2=0.837 $Y2=0.697
r10 3 9 10.4265 $w=2.1e-08 $layer=LIG $thickness=5.2e-08 $X=0.837 $Y=0.697
+ $X2=0.837 $Y2=0.697
r11 2 43 19.3796 $w=1.8e-08 $l=1.8e-08 $layer=<ENCRYPTED_LAYER_4> $X=0.729
+ $Y=0.697 $X2=0.729 $Y2=0.697
r12 2 8 10.4265 $w=2.1e-08 $layer=LIG $thickness=5.2e-08 $X=0.729 $Y=0.697
+ $X2=0.729 $Y2=0.697
r13 12 45 3.38125 $w=1.8e-08 $l=1.45e-08 $layer=M1 $thickness=3.6e-08 $X=0.837
+ $Y=0.6825 $X2=0.837 $Y2=0.697
r14 11 43 3.38125 $w=1.8e-08 $l=1.45e-08 $layer=M1 $thickness=3.6e-08 $X=0.729
+ $Y=0.6825 $X2=0.729 $Y2=0.697
r15 41 45 19.5347 $w=1.8e-08 $l=1.8e-08 $layer=V1 $X=0.837 $Y=0.697 $X2=0.837
+ $Y2=0.697
r16 15 41 3.38125 $w=1.8e-08 $l=1.45e-08 $layer=M2 $thickness=3.6e-08 $X=0.837
+ $Y=0.6825 $X2=0.837 $Y2=0.697
r17 39 43 19.5347 $w=1.8e-08 $l=1.8e-08 $layer=V1 $X=0.729 $Y=0.697 $X2=0.729
+ $Y2=0.697
r18 14 39 3.38125 $w=1.8e-08 $l=1.45e-08 $layer=M2 $thickness=3.6e-08 $X=0.729
+ $Y=0.6825 $X2=0.729 $Y2=0.697
r19 37 41 19.5347 $w=1.8e-08 $l=1.8e-08 $layer=V2 $X=0.837 $Y=0.697 $X2=0.837
+ $Y2=0.697
r20 36 37 12.5922 $w=1.8e-08 $l=5.4e-08 $layer=M3 $thickness=3.6e-08 $X=0.783
+ $Y=0.697 $X2=0.837 $Y2=0.697
r21 35 36 12.5922 $w=1.8e-08 $l=5.4e-08 $layer=M3 $thickness=3.6e-08 $X=0.729
+ $Y=0.697 $X2=0.783 $Y2=0.697
r22 35 39 19.5347 $w=1.8e-08 $l=1.8e-08 $layer=V2 $X=0.729 $Y=0.697 $X2=0.729
+ $Y2=0.697
r23 34 35 28.3326 $w=1.8e-08 $l=1.215e-07 $layer=M3 $thickness=3.6e-08
+ $X=0.6075 $Y=0.697 $X2=0.729 $Y2=0.697
r24 33 34 29.3819 $w=1.8e-08 $l=1.26e-07 $layer=M3 $thickness=3.6e-08 $X=0.4815
+ $Y=0.697 $X2=0.6075 $Y2=0.697
r25 16 33 5.24677 $w=1.8e-08 $l=2.25e-08 $layer=M3 $thickness=3.6e-08 $X=0.459
+ $Y=0.697 $X2=0.4815 $Y2=0.697
r26 13 16 19.5347 $w=1.8e-08 $l=1.8e-08 $layer=V2 $X=0.459 $Y=0.697 $X2=0.459
+ $Y2=0.697
r27 10 13 19.5347 $w=1.8e-08 $l=1.8e-08 $layer=V1 $X=0.467 $Y=0.69 $X2=0.459
+ $Y2=0.697
r28 1 25 10.4265 $w=2.1e-08 $layer=LIG $thickness=5.2e-08 $X=0.459 $Y=0.697
+ $X2=0.459 $Y2=0.697
r29 10 1 19.3796 $w=1.8e-08 $l=1.8e-08 $layer=<ENCRYPTED_LAYER_4> $X=0.467
+ $Y=0.69 $X2=0.459 $Y2=0.697
r30 27 26 16.4967 $w=2e-08 $l=4.85e-08 $layer=<ENCRYPTED_LAYER_23>
+ $thickness=5.6e-08 $X=0.459 $Y=0.778 $X2=0.459 $Y2=0.7295
r31 25 26 11.2416 $w=2e-08 $l=3.25e-08 $layer=<ENCRYPTED_LAYER_23>
+ $thickness=5.6e-08 $X=0.459 $Y=0.697 $X2=0.459 $Y2=0.7295
r32 24 25 11.2416 $w=2e-08 $l=3.25e-08 $layer=<ENCRYPTED_LAYER_23>
+ $thickness=5.6e-08 $X=0.459 $Y=0.6645 $X2=0.459 $Y2=0.697
r33 23 24 16.4967 $w=2e-08 $l=4.85e-08 $layer=<ENCRYPTED_LAYER_23>
+ $thickness=5.6e-08 $X=0.459 $Y=0.616 $X2=0.459 $Y2=0.6645
r34 23 7 10.0341 $w=2e-08 $l=2.95e-08 $layer=<ENCRYPTED_LAYER_23>
+ $thickness=5.6e-08 $X=0.459 $Y=0.616 $X2=0.459 $Y2=0.5865
.ends

.subckt PM_ADDER_M_3bit%A<2> VSS 37 25 31 62 65 75 78 81 84 13 14 16 18 3 4 2
+ 15 1 20 19 12 9 10 11 17
c1 1 VSS 0.00686975f $X=0.081 $Y=0.157
c2 2 VSS 0.00392738f $X=0.351 $Y=0.157
c3 3 VSS 0.00509379f $X=0.513 $Y=0.157
c4 4 VSS 0.00391524f $X=0.729 $Y=0.157
c5 9 VSS 0.0688337f $X=0.081 $Y=0.0465
c6 10 VSS 0.00741754f $X=0.351 $Y=0.157
c7 11 VSS 0.0616897f $X=0.513 $Y=0.157
c8 12 VSS 0.00723212f $X=0.729 $Y=0.157
c9 13 VSS 0.00755176f $X=0.081 $Y=0.157
c10 14 VSS 0.00418777f $X=0.351 $Y=0.093
c11 15 VSS 0.00400093f $X=0.513 $Y=0.1425
c12 16 VSS 0.00456512f $X=0.729 $Y=0.093
c13 17 VSS 0.00215097f $X=0.513 $Y=0.103
c14 18 VSS 0.00776433f $X=0.081 $Y=0.103
c15 19 VSS 0.00202338f $X=0.513 $Y=0.1245
c16 20 VSS 0.00444675f $X=0.54 $Y=0.103
r1 84 83 16.4967 $w=2e-08 $l=4.85e-08 $layer=<ENCRYPTED_LAYER_23>
+ $thickness=5.6e-08 $X=0.729 $Y=0.238 $X2=0.729 $Y2=0.1895
r2 81 82 16.4967 $w=2e-08 $l=4.85e-08 $layer=<ENCRYPTED_LAYER_23>
+ $thickness=5.6e-08 $X=0.729 $Y=0.076 $X2=0.729 $Y2=0.1245
r3 12 82 11.2416 $w=2e-08 $l=3.25e-08 $layer=<ENCRYPTED_LAYER_23>
+ $thickness=5.6e-08 $X=0.729 $Y=0.157 $X2=0.729 $Y2=0.1245
r4 12 83 11.2416 $w=2e-08 $l=3.25e-08 $layer=<ENCRYPTED_LAYER_23>
+ $thickness=5.6e-08 $X=0.729 $Y=0.157 $X2=0.729 $Y2=0.1895
r5 78 77 16.4967 $w=2e-08 $l=4.85e-08 $layer=<ENCRYPTED_LAYER_23>
+ $thickness=5.6e-08 $X=0.513 $Y=0.238 $X2=0.513 $Y2=0.1895
r6 75 76 16.4967 $w=2e-08 $l=4.85e-08 $layer=<ENCRYPTED_LAYER_23>
+ $thickness=5.6e-08 $X=0.513 $Y=0.076 $X2=0.513 $Y2=0.1245
r7 11 76 11.2416 $w=2e-08 $l=3.25e-08 $layer=<ENCRYPTED_LAYER_23>
+ $thickness=5.6e-08 $X=0.513 $Y=0.157 $X2=0.513 $Y2=0.1245
r8 11 77 11.2416 $w=2e-08 $l=3.25e-08 $layer=<ENCRYPTED_LAYER_23>
+ $thickness=5.6e-08 $X=0.513 $Y=0.157 $X2=0.513 $Y2=0.1895
r9 4 73 19.3796 $w=1.8e-08 $l=1.8e-08 $layer=<ENCRYPTED_LAYER_4> $X=0.729
+ $Y=0.157 $X2=0.729 $Y2=0.157
r10 4 12 10.4265 $w=2.1e-08 $layer=LIG $thickness=5.2e-08 $X=0.729 $Y=0.157
+ $X2=0.729 $Y2=0.157
r11 3 67 19.3796 $w=1.8e-08 $l=1.8e-08 $layer=<ENCRYPTED_LAYER_4> $X=0.513
+ $Y=0.157 $X2=0.513 $Y2=0.157
r12 3 11 10.4265 $w=2.1e-08 $layer=LIG $thickness=5.2e-08 $X=0.513 $Y=0.157
+ $X2=0.513 $Y2=0.157
r13 72 73 2.68168 $w=1.8e-08 $l=1.15e-08 $layer=M1 $thickness=3.6e-08 $X=0.729
+ $Y=0.1455 $X2=0.729 $Y2=0.157
r14 71 72 1.28254 $w=1.8e-08 $l=5.5e-09 $layer=M1 $thickness=3.6e-08 $X=0.729
+ $Y=0.14 $X2=0.729 $Y2=0.1455
r15 70 71 3.61444 $w=1.8e-08 $l=1.55e-08 $layer=M1 $thickness=3.6e-08 $X=0.729
+ $Y=0.1245 $X2=0.729 $Y2=0.14
r16 69 70 5.01358 $w=1.8e-08 $l=2.15e-08 $layer=M1 $thickness=3.6e-08 $X=0.729
+ $Y=0.103 $X2=0.729 $Y2=0.1245
r17 16 69 2.3319 $w=1.8e-08 $l=1e-08 $layer=M1 $thickness=3.6e-08 $X=0.729
+ $Y=0.093 $X2=0.729 $Y2=0.103
r18 15 67 3.38125 $w=1.8e-08 $l=1.45e-08 $layer=M1 $thickness=3.6e-08 $X=0.513
+ $Y=0.1425 $X2=0.513 $Y2=0.157
r19 65 64 16.4967 $w=2e-08 $l=4.85e-08 $layer=<ENCRYPTED_LAYER_23>
+ $thickness=5.6e-08 $X=0.351 $Y=0.238 $X2=0.351 $Y2=0.1895
r20 62 63 16.4967 $w=2e-08 $l=4.85e-08 $layer=<ENCRYPTED_LAYER_23>